10421832
  -OEChem-12271618503D

 25 25  0     1  0  0  0  0  0999 V2000
    4.7362   -0.2809   -0.4532 Br  0  0  0  0  0  0  0  0  0  0  0  0
   -1.7076    1.0384    1.4519 O   0  0  0  0  0  0  0  0  0  0  0  0
   -3.0920    0.2119   -0.9835 N   0  0  0  0  0  0  0  0  0  0  0  0
   -2.2932   -0.6577   -0.1563 C   0  0  1  0  0  0  0  0  0  0  0  0
   -1.2850    0.2276    0.6020 C   0  0  0  0  0  0  0  0  0  0  0  0
    0.1425    0.1074    0.3503 C   0  0  0  0  0  0  0  0  0  0  0  0
   -3.1625   -1.4444    0.8106 C   0  0  0  0  0  0  0  0  0  0  0  0
    0.6808   -1.1180   -0.0418 C   0  0  0  0  0  0  0  0  0  0  0  0
    0.9733    1.2175    0.5028 C   0  0  0  0  0  0  0  0  0  0  0  0
   -2.2663    0.9535   -1.9352 C   0  0  0  0  0  0  0  0  0  0  0  0
    2.0500   -1.2337   -0.2814 C   0  0  0  0  0  0  0  0  0  0  0  0
    2.3427    1.1020    0.2631 C   0  0  0  0  0  0  0  0  0  0  0  0
    2.8810   -0.1236   -0.1292 C   0  0  0  0  0  0  0  0  0  0  0  0
   -1.7867   -1.3783   -0.8035 H   0  0  0  0  0  0  0  0  0  0  0  0
   -3.7436   -0.7843    1.4649 H   0  0  0  0  0  0  0  0  0  0  0  0
   -2.5439   -2.0785    1.4552 H   0  0  0  0  0  0  0  0  0  0  0  0
   -3.8651   -2.0916    0.2743 H   0  0  0  0  0  0  0  0  0  0  0  0
   -3.7782   -0.3404   -1.4977 H   0  0  0  0  0  0  0  0  0  0  0  0
    0.0760   -2.0145   -0.1345 H   0  0  0  0  0  0  0  0  0  0  0  0
    0.5713    2.1817    0.8030 H   0  0  0  0  0  0  0  0  0  0  0  0
   -2.9248    1.4750   -2.6380 H   0  0  0  0  0  0  0  0  0  0  0  0
   -1.6217    0.2914   -2.5230 H   0  0  0  0  0  0  0  0  0  0  0  0
   -1.6607    1.7260   -1.4521 H   0  0  0  0  0  0  0  0  0  0  0  0
    2.4553   -2.1977   -0.5780 H   0  0  0  0  0  0  0  0  0  0  0  0
    2.9762    1.9768    0.3854 H   0  0  0  0  0  0  0  0  0  0  0  0
  1 13  1  0  0  0  0
  2  5  2  0  0  0  0
  3  4  1  0  0  0  0
  3 10  1  0  0  0  0
  3 18  1  0  0  0  0
  4  5  1  0  0  0  0
  4  7  1  0  0  0  0
  4 14  1  0  0  0  0
  5  6  1  0  0  0  0
  6  8  2  0  0  0  0
  6  9  1  0  0  0  0
  7 15  1  0  0  0  0
  7 16  1  0  0  0  0
  7 17  1  0  0  0  0
  8 11  1  0  0  0  0
  8 19  1  0  0  0  0
  9 12  2  0  0  0  0
  9 20  1  0  0  0  0
 10 21  1  0  0  0  0
 10 22  1  0  0  0  0
 10 23  1  0  0  0  0
 11 13  2  0  0  0  0
 11 24  1  0  0  0  0
 12 13  1  0  0  0  0
 12 25  1  0  0  0  0
M  END
> <PUBCHEM_COMPOUND_CID>
10421832

> <PUBCHEM_CONFORMER_RMSD>
0.6

> <PUBCHEM_CONFORMER_DIVERSEORDER>
5
18
8
17
6
10
13
15
7
12
21
19
9
20
2
11
1
3
14
4
16

> <PUBCHEM_MMFF94_PARTIAL_CHARGES>
17
1 -0.11
10 0.27
11 -0.15
12 -0.15
13 0.11
18 0.36
19 0.15
2 -0.57
20 0.15
24 0.15
25 0.15
3 -0.9
4 0.33
5 0.42
6 0.09
8 -0.15
9 -0.15

> <PUBCHEM_EFFECTIVE_ROTOR_COUNT>
3

> <PUBCHEM_PHARMACOPHORE_FEATURES>
5
1 1 hydrophobe
1 2 acceptor
1 3 cation
1 3 donor
6 6 8 9 11 12 13 rings

> <PUBCHEM_HEAVY_ATOM_COUNT>
13

> <PUBCHEM_ATOM_DEF_STEREO_COUNT>
0

> <PUBCHEM_ATOM_UDEF_STEREO_COUNT>
1

> <PUBCHEM_BOND_DEF_STEREO_COUNT>
0

> <PUBCHEM_BOND_UDEF_STEREO_COUNT>
0

> <PUBCHEM_ISOTOPIC_ATOM_COUNT>
0

> <PUBCHEM_COMPONENT_COUNT>
1

> <PUBCHEM_CACTVS_TAUTO_COUNT>
2

> <PUBCHEM_CONFORMER_ID>
009F064800000005

> <PUBCHEM_MMFF94_ENERGY>
31.0088

> <PUBCHEM_FEATURE_SELFOVERLAP>
25.371

> <PUBCHEM_SHAPE_FINGERPRINT>
11543360 7 17240777223959388118
12032990 46 18272381871142628490
12138202 97 17677034764347877199
12897270 3 18411976970625939657
12932764 1 17894348869284762258
14993402 34 18202001023741706910
15775835 57 17894628128142945371
16945 1 17917708032730122610
17844478 74 18188494682872209155
18186145 218 18335427859278586380
19026448 4 16371018399330456978
19026448 5 16298379163446302202
200 152 17917423233343119431
20201158 50 18411698781252029990
20300324 65 16805606992299548310
20361792 2 16773218687244767773
20645464 45 11815902253672122279
20645477 56 17749104453098191237
20711983 171 16588296168643655380
21061003 4 18270687579305489361
22926399 65 17095794417660581900
23402539 116 17703511004845727068
23402655 69 18199461074372140645
23557571 272 17822015315203258613
23559900 14 18188483572345923450
25 1 18191857938591295005
2748010 2 18054789756840151986
5084963 1 18187932827702723816
57812782 119 18187921819775488066
8030462 33 17988638566993093770
8809292 202 18264215879397430922

> <PUBCHEM_SHAPE_MULTIPOLES>
262.63
6.82
1.39
1.22
4.31
0.11
0.19
0.92
1.46
-0.5
0.04
-0.91
-0.45
0.81

> <PUBCHEM_SHAPE_SELFOVERLAP>
523.436

> <PUBCHEM_SHAPE_VOLUME>
160.4

> <PUBCHEM_COORDINATE_TYPE>
2
5
10

$$$$
