54673723
  -OEChem-12271619573D

 28 29  0     1  0  0  0  0  0999 V2000
   -3.2512    1.9404   -0.3939 F   0  0  0  0  0  0  0  0  0  0  0  0
    1.4001    0.8014    1.0461 O   0  0  0  0  0  0  0  0  0  0  0  0
    3.1489   -0.7268   -0.6064 N   0  0  0  0  0  0  0  0  0  0  0  0
    1.6960   -0.6937   -0.8633 C   0  0  1  0  0  0  0  0  0  0  0  0
    0.9427   -0.4260    0.4605 C   0  0  2  0  0  0  0  0  0  0  0  0
    3.6049    0.4823    0.0867 C   0  0  0  0  0  0  0  0  0  0  0  0
    2.7939    0.7347    1.3507 C   0  0  0  0  0  0  0  0  0  0  0  0
   -0.5655   -0.4144    0.2983 C   0  0  0  0  0  0  0  0  0  0  0  0
    1.3793    0.3106   -1.9793 C   0  0  0  0  0  0  0  0  0  0  0  0
   -1.2281    0.7812    0.0207 C   0  0  0  0  0  0  0  0  0  0  0  0
   -1.2898   -1.5996    0.4276 C   0  0  0  0  0  0  0  0  0  0  0  0
   -2.6150    0.7919   -0.1280 C   0  0  0  0  0  0  0  0  0  0  0  0
   -2.6768   -1.5889    0.2792 C   0  0  0  0  0  0  0  0  0  0  0  0
   -3.3394   -0.3932    0.0012 C   0  0  0  0  0  0  0  0  0  0  0  0
    1.4123   -1.6877   -1.2317 H   0  0  0  0  0  0  0  0  0  0  0  0
    1.1792   -1.2262    1.1776 H   0  0  0  0  0  0  0  0  0  0  0  0
    3.6567   -0.8290   -1.4844 H   0  0  0  0  0  0  0  0  0  0  0  0
    3.5327    1.3456   -0.5843 H   0  0  0  0  0  0  0  0  0  0  0  0
    4.6621    0.3673    0.3481 H   0  0  0  0  0  0  0  0  0  0  0  0
    2.9671   -0.0443    2.1030 H   0  0  0  0  0  0  0  0  0  0  0  0
    3.0840    1.6920    1.7953 H   0  0  0  0  0  0  0  0  0  0  0  0
    1.4964    1.3498   -1.6562 H   0  0  0  0  0  0  0  0  0  0  0  0
    0.3522    0.1837   -2.3367 H   0  0  0  0  0  0  0  0  0  0  0  0
    2.0314    0.1511   -2.8459 H   0  0  0  0  0  0  0  0  0  0  0  0
   -0.6853    1.7159   -0.0893 H   0  0  0  0  0  0  0  0  0  0  0  0
   -0.7852   -2.5379    0.6415 H   0  0  0  0  0  0  0  0  0  0  0  0
   -3.2408   -2.5116    0.3794 H   0  0  0  0  0  0  0  0  0  0  0  0
   -4.4192   -0.3847   -0.1146 H   0  0  0  0  0  0  0  0  0  0  0  0
  1 12  1  0  0  0  0
  2  5  1  0  0  0  0
  2  7  1  0  0  0  0
  3  4  1  0  0  0  0
  3  6  1  0  0  0  0
  3 17  1  0  0  0  0
  4  5  1  0  0  0  0
  4  9  1  0  0  0  0
  4 15  1  0  0  0  0
  5  8  1  0  0  0  0
  5 16  1  0  0  0  0
  6  7  1  0  0  0  0
  6 18  1  0  0  0  0
  6 19  1  0  0  0  0
  7 20  1  0  0  0  0
  7 21  1  0  0  0  0
  8 10  2  0  0  0  0
  8 11  1  0  0  0  0
  9 22  1  0  0  0  0
  9 23  1  0  0  0  0
  9 24  1  0  0  0  0
 10 12  1  0  0  0  0
 10 25  1  0  0  0  0
 11 13  2  0  0  0  0
 11 26  1  0  0  0  0
 12 14  2  0  0  0  0
 13 14  1  0  0  0  0
 13 27  1  0  0  0  0
 14 28  1  0  0  0  0
M  END
> <PUBCHEM_COMPOUND_CID>
54673723

> <PUBCHEM_CONFORMER_RMSD>
0.6

> <PUBCHEM_CONFORMER_DIVERSEORDER>
1
21
11
9
20
13
16
4
17
12
19
10
14
15
5
7
3
18
6
2
8

> <PUBCHEM_MMFF94_PARTIAL_CHARGES>
18
1 -0.19
10 -0.15
11 -0.15
12 0.19
13 -0.15
14 -0.15
17 0.36
2 -0.56
25 0.15
26 0.15
27 0.15
28 0.15
3 -0.9
4 0.27
5 0.42
6 0.27
7 0.28
8 -0.14

> <PUBCHEM_EFFECTIVE_ROTOR_COUNT>
2.2

> <PUBCHEM_PHARMACOPHORE_FEATURES>
5
1 2 acceptor
1 3 cation
1 3 donor
6 2 3 4 5 6 7 rings
6 8 10 11 12 13 14 rings

> <PUBCHEM_HEAVY_ATOM_COUNT>
14

> <PUBCHEM_ATOM_DEF_STEREO_COUNT>
0

> <PUBCHEM_ATOM_UDEF_STEREO_COUNT>
2

> <PUBCHEM_BOND_DEF_STEREO_COUNT>
0

> <PUBCHEM_BOND_UDEF_STEREO_COUNT>
0

> <PUBCHEM_ISOTOPIC_ATOM_COUNT>
0

> <PUBCHEM_COMPONENT_COUNT>
1

> <PUBCHEM_CACTVS_TAUTO_COUNT>
1

> <PUBCHEM_CONFORMER_ID>
0342413B00000001

> <PUBCHEM_MMFF94_ENERGY>
26.9182

> <PUBCHEM_FEATURE_SELFOVERLAP>
25.371

> <PUBCHEM_SHAPE_FINGERPRINT>
10219947 1 16559037090692485590
10608611 8 18343577468969621552
107287 299 17346323755703188248
12138202 97 18272362079490158655
124424 183 18201998790179442650
12500047 106 18409444756692647870
12716758 59 18410296891352872259
12932764 1 18201725067244401791
13296908 3 18060707190549450150
13538477 17 17313953042491710747
13581323 91 18260829336328171131
13839132 238 18411975832486057925
14144814 61 16805320006890385090
14993402 34 16877940563993625922
15219456 202 18131631205315751706
15279308 16 18131061653929226192
15775835 57 18187363177795642553
16945 1 18261113014950184739
17357990 137 17313676965972126676
18175812 5 18059573632873992404
18186145 218 18130232562026851617
19049666 15 18129388111311221523
19786989 88 16916790737729325630
200 152 16128654141571858651
20201158 50 17918279735631850726
20279233 1 18202283614861431035
20645464 45 18202284719000283675
20645476 183 17313100886831695899
20645477 56 18409450263220613857
20645477 70 17203049590764161326
21639500 275 16343410817165218928
22802520 49 18059022665805499873
23402539 116 18339630209382889965
23557571 272 18271534173035843477
23559900 14 18270120107258180102
2748010 2 18201721772977774211
3248919 1 17385445435807632387
474 4 16299807557852661364
57812782 119 18272086114882615994
6333449 129 18413106169431695011
69090 78 18059850692920079375
74978 22 16443634613293405170
77492 1 17095521811696144562
81228 2 18263931102102156795

> <PUBCHEM_SHAPE_MULTIPOLES>
269.99
6.01
1.46
1.22
0.24
0.07
-0.36
0.71
0.22
-1.26
0.03
1.03
0.16
0.62

> <PUBCHEM_SHAPE_SELFOVERLAP>
564.45

> <PUBCHEM_SHAPE_VOLUME>
152.8

> <PUBCHEM_COORDINATE_TYPE>
2
5
10

$$$$
