68871
  -OEChem-12271620083D

 38 40  0     1  0  0  0  0  0999 V2000
    3.5316    1.1142    2.5598 Cl  0  0  0  0  0  0  0  0  0  0  0  0
    5.5078    1.6893    0.0623 Cl  0  0  0  0  0  0  0  0  0  0  0  0
   -4.3917    2.0714    0.4070 O   0  0  0  0  0  0  0  0  0  0  0  0
   -1.1163   -3.0503   -0.1163 N   0  0  2  0  0  0  0  0  0  0  0  0
    0.2084   -1.0673   -0.7842 C   0  0  1  0  0  0  0  0  0  0  0  0
    0.2125   -2.4296   -0.0496 C   0  0  0  0  0  0  0  0  0  0  0  0
   -1.0106   -0.2174   -0.4469 C   0  0  0  0  0  0  0  0  0  0  0  0
   -2.0779   -2.2420    0.6507 C   0  0  0  0  0  0  0  0  0  0  0  0
   -2.1107   -0.7963    0.2137 C   0  0  0  0  0  0  0  0  0  0  0  0
    1.5425   -0.3696   -0.5540 C   0  0  0  0  0  0  0  0  0  0  0  0
   -1.0950    1.1231   -0.8599 C   0  0  0  0  0  0  0  0  0  0  0  0
   -3.2363   -0.0134    0.5106 C   0  0  0  0  0  0  0  0  0  0  0  0
   -1.0755   -4.4182    0.4005 C   0  0  0  0  0  0  0  0  0  0  0  0
   -3.2919    1.3232    0.1200 C   0  0  0  0  0  0  0  0  0  0  0  0
    1.9068    0.0166    0.7318 C   0  0  0  0  0  0  0  0  0  0  0  0
    2.3875   -0.1244   -1.6317 C   0  0  0  0  0  0  0  0  0  0  0  0
   -2.2251    1.8888   -0.5713 C   0  0  0  0  0  0  0  0  0  0  0  0
    3.1291    0.6547    0.9425 C   0  0  0  0  0  0  0  0  0  0  0  0
    3.6096    0.5141   -1.4210 C   0  0  0  0  0  0  0  0  0  0  0  0
    3.9806    0.9035   -0.1339 C   0  0  0  0  0  0  0  0  0  0  0  0
   -4.3855    3.4296   -0.0302 C   0  0  0  0  0  0  0  0  0  0  0  0
    0.1102   -1.2891   -1.8579 H   0  0  0  0  0  0  0  0  0  0  0  0
    0.9564   -3.0770   -0.5338 H   0  0  0  0  0  0  0  0  0  0  0  0
    0.5228   -2.3308    0.9995 H   0  0  0  0  0  0  0  0  0  0  0  0
   -1.8481   -2.2688    1.7245 H   0  0  0  0  0  0  0  0  0  0  0  0
   -3.0787   -2.6693    0.5092 H   0  0  0  0  0  0  0  0  0  0  0  0
   -0.2805    1.5852   -1.4119 H   0  0  0  0  0  0  0  0  0  0  0  0
   -4.0769   -0.4516    1.0441 H   0  0  0  0  0  0  0  0  0  0  0  0
   -0.3937   -5.0336   -0.1968 H   0  0  0  0  0  0  0  0  0  0  0  0
   -2.0640   -4.8855    0.3288 H   0  0  0  0  0  0  0  0  0  0  0  0
   -0.7496   -4.4582    1.4462 H   0  0  0  0  0  0  0  0  0  0  0  0
    1.2404   -0.1682    1.5711 H   0  0  0  0  0  0  0  0  0  0  0  0
    2.1118   -0.4221   -2.6394 H   0  0  0  0  0  0  0  0  0  0  0  0
   -2.2059    2.9167   -0.9168 H   0  0  0  0  0  0  0  0  0  0  0  0
    4.2609    0.7001   -2.2714 H   0  0  0  0  0  0  0  0  0  0  0  0
   -3.5880    4.0042    0.4529 H   0  0  0  0  0  0  0  0  0  0  0  0
   -5.3354    3.8746    0.2838 H   0  0  0  0  0  0  0  0  0  0  0  0
   -4.3449    3.5004   -1.1225 H   0  0  0  0  0  0  0  0  0  0  0  0
  1 18  1  0  0  0  0
  2 20  1  0  0  0  0
  3 14  1  0  0  0  0
  3 21  1  0  0  0  0
  4  6  1  0  0  0  0
  4  8  1  0  0  0  0
  4 13  1  0  0  0  0
  5  6  1  0  0  0  0
  5  7  1  0  0  0  0
  5 10  1  0  0  0  0
  5 22  1  0  0  0  0
  6 23  1  0  0  0  0
  6 24  1  0  0  0  0
  7  9  2  0  0  0  0
  7 11  1  0  0  0  0
  8  9  1  0  0  0  0
  8 25  1  0  0  0  0
  8 26  1  0  0  0  0
  9 12  1  0  0  0  0
 10 15  2  0  0  0  0
 10 16  1  0  0  0  0
 11 17  2  0  0  0  0
 11 27  1  0  0  0  0
 12 14  2  0  0  0  0
 12 28  1  0  0  0  0
 13 29  1  0  0  0  0
 13 30  1  0  0  0  0
 13 31  1  0  0  0  0
 14 17  1  0  0  0  0
 15 18  1  0  0  0  0
 15 32  1  0  0  0  0
 16 19  2  0  0  0  0
 16 33  1  0  0  0  0
 17 34  1  0  0  0  0
 18 20  2  0  0  0  0
 19 20  1  0  0  0  0
 19 35  1  0  0  0  0
 21 36  1  0  0  0  0
 21 37  1  0  0  0  0
 21 38  1  0  0  0  0
M  END
> <PUBCHEM_COMPOUND_CID>
68871

> <PUBCHEM_CONFORMER_RMSD>
0.6

> <PUBCHEM_CONFORMER_DIVERSEORDER>
12
11
24
7
21
4
18
16
26
9
22
14
8
23
25
6
3
20
17
15
5
19
10
13
2
1

> <PUBCHEM_MMFF94_PARTIAL_CHARGES>
27
1 -0.18
10 -0.14
11 -0.15
12 -0.15
13 0.27
14 0.08
15 -0.15
16 -0.15
17 -0.15
18 0.18
19 -0.15
2 -0.18
20 0.18
21 0.28
27 0.15
28 0.15
3 -0.36
32 0.15
33 0.15
34 0.15
35 0.15
4 -0.81
5 0.29
6 0.27
7 -0.14
8 0.41
9 -0.14

> <PUBCHEM_EFFECTIVE_ROTOR_COUNT>
2.8

> <PUBCHEM_PHARMACOPHORE_FEATURES>
5
1 3 acceptor
1 4 cation
6 10 15 16 18 19 20 rings
6 4 5 6 7 8 9 rings
6 7 9 11 12 14 17 rings

> <PUBCHEM_HEAVY_ATOM_COUNT>
21

> <PUBCHEM_ATOM_DEF_STEREO_COUNT>
0

> <PUBCHEM_ATOM_UDEF_STEREO_COUNT>
1

> <PUBCHEM_BOND_DEF_STEREO_COUNT>
0

> <PUBCHEM_BOND_UDEF_STEREO_COUNT>
0

> <PUBCHEM_ISOTOPIC_ATOM_COUNT>
0

> <PUBCHEM_COMPONENT_COUNT>
1

> <PUBCHEM_CACTVS_TAUTO_COUNT>
1

> <PUBCHEM_CONFORMER_ID>
00010D070000000C

> <PUBCHEM_MMFF94_ENERGY>
67.4377

> <PUBCHEM_FEATURE_SELFOVERLAP>
25.393

> <PUBCHEM_SHAPE_FINGERPRINT>
10165383 225 18196682659621682465
10319926 262 18268981142282090320
10411042 1 17617665796235171479
10498660 4 18341898441826560045
11265709 11 17832707155414739867
11725454 13 17774421842024818202
12107183 9 18262508192617046378
12173636 292 18409451384080263631
12236239 1 17386560409692161694
12390115 104 18269855180046785729
12403259 415 18341626879549336101
12500047 106 18412546526550428542
12553582 1 17758405449211818746
12788726 201 17826531146776707843
13140716 1 17831308563749525275
13583140 156 17916291922526901642
13878862 14 17398663511943687397
13955234 65 17831872248532198947
13965767 371 17895473609777756228
14178342 30 18263637528107841834
14341114 328 16805620169296642100
14787075 74 18131064961771585569
14848178 96 18197500610769807433
15230672 131 18335990775580035022
15295992 7 18201996603951366514
15842332 3 17677043676790085982
16945 1 18265057001518570711
17868525 174 16895961237635418065
17980427 26 18124585388860764143
18219364 16 16988006144995273506
18785283 64 18046347422730613379
20510252 161 18341623637133896723
20600515 1 17398072403403054967
21033648 29 18342174457778473208
212916 134 18411129212928027153
21524375 3 18199467666946194255
21650355 55 17976822313124962419
21731228 192 18335411318890323579
22112679 90 17677051386024287358
22149856 69 18046655334492236369
23493267 7 18341610456105936874
23557571 272 18199755915297112700
23559900 14 18343029883089774598
2748010 2 18191046537812888783
283562 15 18411698816556111371
3091708 16 8907833601959306619
350125 39 18046915870199572836
458136 41 18121516660803263771
495365 180 18122619453838872957
5104073 3 18117853105445404761
5265222 85 18194981840943346142
57124632 79 18120929499950591377
59755656 520 18409726248891413118
6049 1 17701554024224370642
633830 44 18128535964341368573
6442390 28 18338809935423355647
7097593 13 18042383821284035234
7364860 26 17833833768375447799
77492 1 17386281133765093470
7808743 9 18337394941310413628
81228 2 18194400215438445135
84936 182 17910677566498721985
90316 7 17530676602426641429
9981440 41 18335424522020491219

> <PUBCHEM_SHAPE_MULTIPOLES>
425.06
8.81
3.84
1.41
5.25
3.12
-0.49
-8.83
-1.38
-5.38
-0.49
1.84
-0.34
0.71

> <PUBCHEM_SHAPE_SELFOVERLAP>
898.158

> <PUBCHEM_SHAPE_VOLUME>
241.5

> <PUBCHEM_COORDINATE_TYPE>
2
5
10

$$$$
