91696118
  -OEChem-12271618403D

 31 31  0     1  0  0  0  0  0999 V2000
   -0.7968   -1.0055   -1.3866 O   0  0  0  0  0  0  0  0  0  0  0  0
   -2.8422   -0.2985    0.2691 N   0  0  0  0  0  0  0  0  0  0  0  0
   -1.5055   -0.4416    0.8492 C   0  0  2  0  0  0  0  0  0  0  0  0
   -0.4769   -0.4792   -0.3005 C   0  0  0  0  0  0  0  0  0  0  0  0
    0.8582    0.0756   -0.1232 C   0  0  0  0  0  0  0  0  0  0  0  0
   -1.4371   -1.7272    1.6632 C   0  0  0  0  0  0  0  0  0  0  0  0
   -3.0961    1.0848   -0.0995 C   0  0  0  0  0  0  0  0  0  0  0  0
    1.9948   -0.7204   -0.2640 C   0  0  0  0  0  0  0  0  0  0  0  0
    0.9886    1.4280    0.1923 C   0  0  0  0  0  0  0  0  0  0  0  0
    3.2619   -0.1642   -0.0893 C   0  0  0  0  0  0  0  0  0  0  0  0
   -4.4811    1.2469   -0.7026 C   0  0  0  0  0  0  0  0  0  0  0  0
    1.8840   -2.1715   -0.6016 C   0  0  0  0  0  0  0  0  0  0  0  0
    2.2558    1.9844    0.3671 C   0  0  0  0  0  0  0  0  0  0  0  0
    3.3925    1.1884    0.2263 C   0  0  0  0  0  0  0  0  0  0  0  0
   -1.2845    0.3939    1.5237 H   0  0  0  0  0  0  0  0  0  0  0  0
   -3.5455   -0.5921    0.9471 H   0  0  0  0  0  0  0  0  0  0  0  0
   -1.6346   -2.6083    1.0416 H   0  0  0  0  0  0  0  0  0  0  0  0
   -0.4395   -1.8553    2.0978 H   0  0  0  0  0  0  0  0  0  0  0  0
   -2.1612   -1.7176    2.4851 H   0  0  0  0  0  0  0  0  0  0  0  0
   -3.0222    1.7370    0.7791 H   0  0  0  0  0  0  0  0  0  0  0  0
   -2.3624    1.4335   -0.8352 H   0  0  0  0  0  0  0  0  0  0  0  0
    0.1139    2.0644    0.2988 H   0  0  0  0  0  0  0  0  0  0  0  0
    4.1579   -0.7698   -0.1970 H   0  0  0  0  0  0  0  0  0  0  0  0
   -4.5929    0.6361   -1.6048 H   0  0  0  0  0  0  0  0  0  0  0  0
   -5.2602    0.9534    0.0090 H   0  0  0  0  0  0  0  0  0  0  0  0
   -4.6538    2.2920   -0.9790 H   0  0  0  0  0  0  0  0  0  0  0  0
    1.1714   -2.6765    0.0586 H   0  0  0  0  0  0  0  0  0  0  0  0
    1.5709   -2.2991   -1.6427 H   0  0  0  0  0  0  0  0  0  0  0  0
    2.8431   -2.6872   -0.4803 H   0  0  0  0  0  0  0  0  0  0  0  0
    2.3575    3.0378    0.6112 H   0  0  0  0  0  0  0  0  0  0  0  0
    4.3791    1.6219    0.3617 H   0  0  0  0  0  0  0  0  0  0  0  0
  1  4  2  0  0  0  0
  2  3  1  0  0  0  0
  2  7  1  0  0  0  0
  2 16  1  0  0  0  0
  3  4  1  0  0  0  0
  3  6  1  0  0  0  0
  3 15  1  0  0  0  0
  4  5  1  0  0  0  0
  5  8  1  0  0  0  0
  5  9  2  0  0  0  0
  6 17  1  0  0  0  0
  6 18  1  0  0  0  0
  6 19  1  0  0  0  0
  7 11  1  0  0  0  0
  7 20  1  0  0  0  0
  7 21  1  0  0  0  0
  8 10  2  0  0  0  0
  8 12  1  0  0  0  0
  9 13  1  0  0  0  0
  9 22  1  0  0  0  0
 10 14  1  0  0  0  0
 10 23  1  0  0  0  0
 11 24  1  0  0  0  0
 11 25  1  0  0  0  0
 11 26  1  0  0  0  0
 12 27  1  0  0  0  0
 12 28  1  0  0  0  0
 12 29  1  0  0  0  0
 13 14  2  0  0  0  0
 13 30  1  0  0  0  0
 14 31  1  0  0  0  0
M  END
> <PUBCHEM_COMPOUND_CID>
91696118

> <PUBCHEM_CONFORMER_RMSD>
0.6

> <PUBCHEM_CONFORMER_DIVERSEORDER>
1
54
20
69
8
59
38
36
63
15
5
76
78
68
79
44
2
52
57
45
17
74
58
33
56
61
50
75
30
71
70
66
10
65
64
35
13
48
4
51
21
62
49
67
37
42
40
28
18
72
22
60
6
16
39
23
7
12
25
29
53
11
24
26
77
43
34
3
73
14
47
46
41
9
27
19
32
55
31

> <PUBCHEM_MMFF94_PARTIAL_CHARGES>
17
1 -0.57
10 -0.15
12 0.14
13 -0.15
14 -0.15
16 0.36
2 -0.9
22 0.15
23 0.15
3 0.33
30 0.15
31 0.15
4 0.42
5 0.09
7 0.27
8 -0.14
9 -0.15

> <PUBCHEM_EFFECTIVE_ROTOR_COUNT>
4

> <PUBCHEM_PHARMACOPHORE_FEATURES>
4
1 1 acceptor
1 2 cation
1 2 donor
6 5 8 9 10 13 14 rings

> <PUBCHEM_HEAVY_ATOM_COUNT>
14

> <PUBCHEM_ATOM_DEF_STEREO_COUNT>
0

> <PUBCHEM_ATOM_UDEF_STEREO_COUNT>
1

> <PUBCHEM_BOND_DEF_STEREO_COUNT>
0

> <PUBCHEM_BOND_UDEF_STEREO_COUNT>
0

> <PUBCHEM_ISOTOPIC_ATOM_COUNT>
0

> <PUBCHEM_COMPONENT_COUNT>
1

> <PUBCHEM_CACTVS_TAUTO_COUNT>
2

> <PUBCHEM_CONFORMER_ID>
05772BF600000001

> <PUBCHEM_MMFF94_ENERGY>
29.0982

> <PUBCHEM_FEATURE_SELFOVERLAP>
20.297

> <PUBCHEM_SHAPE_FINGERPRINT>
10608611 8 18336265738209424705
10980938 120 18342458140578707532
11471102 20 18341891870684326732
124424 183 18408604747241921896
12500047 106 18113339725475815763
12507560 18 18041556919424598338
12654215 9 18411984650470777972
13380535 76 18409445894827131426
13571099 22 18201159853864035214
14115302 16 17677064438456552446
14648413 74 18335425728510960808
14993402 34 17632297856558743980
15219456 202 18409173220486310627
15442244 35 17983581801358605120
15775835 57 17917153921613772032
16945 1 18200892720057367562
18186145 218 18261678052326173105
19049666 15 18261404295073455811
19422 9 13407092400261752697
20201158 50 18411421682936359560
20645477 70 18202004283031352959
20715346 28 18338250352286405618
21947302 44 18411698751361117921
22096605 113 18201432601694118609
22892500 29 18343295968355157684
23402539 116 18188483709621346327
23402655 69 18201151071057212013
23526113 38 18192439562704219331
25 1 18408600336041483509
2748010 2 18269284636870357228
276578 36 16805601421916902057
63268167 104 17988369264317696968
633830 44 18262512577520328909
69090 78 18411697703879805511

> <PUBCHEM_SHAPE_MULTIPOLES>
277.26
6.34
2.06
1.06
4.32
0.17
0.15
-2.9
-0.69
-0.63
0.17
0.48
0.47
1.07

> <PUBCHEM_SHAPE_SELFOVERLAP>
561.247

> <PUBCHEM_SHAPE_VOLUME>
163.2

> <PUBCHEM_COORDINATE_TYPE>
2
5
10

$$$$
