71300672
  -OEChem-12271619293D

 38 40  0     1  0  0  0  0  0999 V2000
   -1.1310   -0.4983   -2.2175 O   0  0  0  0  0  0  0  0  0  0  0  0
    3.3552   -0.6252    1.6669 O   0  0  0  0  0  0  0  0  0  0  0  0
    4.5240    0.8766    0.1883 O   0  0  0  0  0  0  0  0  0  0  0  0
   -2.7974    0.1673    0.0272 N   0  0  0  0  0  0  0  0  0  0  0  0
   -3.7941   -0.0279    1.0797 C   0  0  0  0  0  0  0  0  0  0  0  0
   -2.3366    1.5456    0.1915 C   0  0  0  0  0  0  0  0  0  0  0  0
   -1.7090   -0.7956    0.1071 C   0  0  1  0  0  0  0  0  0  0  0  0
   -3.6268    2.3059    0.4608 C   0  0  0  0  0  0  0  0  0  0  0  0
   -4.5834    1.2725    1.0479 C   0  0  0  0  0  0  0  0  0  0  0  0
   -2.2713   -2.2187   -0.0234 C   0  0  0  0  0  0  0  0  0  0  0  0
   -0.7639   -0.4643   -1.0438 C   0  0  0  0  0  0  0  0  0  0  0  0
   -1.1799   -3.2798    0.0510 C   0  0  0  0  0  0  0  0  0  0  0  0
    0.6446   -0.0860   -0.7465 C   0  0  0  0  0  0  0  0  0  0  0  0
    1.2771   -0.6045    0.3860 C   0  0  0  0  0  0  0  0  0  0  0  0
    1.3265    0.7903   -1.6090 C   0  0  0  0  0  0  0  0  0  0  0  0
    2.5830   -0.2252    0.6201 C   0  0  0  0  0  0  0  0  0  0  0  0
    3.2505    0.6325   -0.2241 C   0  0  0  0  0  0  0  0  0  0  0  0
    2.6488    1.1583   -1.3489 C   0  0  0  0  0  0  0  0  0  0  0  0
    4.5838    0.0765    1.3867 C   0  0  0  0  0  0  0  0  0  0  0  0
   -1.6613    1.6529    1.0504 H   0  0  0  0  0  0  0  0  0  0  0  0
   -1.8386    1.9439   -0.6982 H   0  0  0  0  0  0  0  0  0  0  0  0
   -4.4653   -0.8707    0.8884 H   0  0  0  0  0  0  0  0  0  0  0  0
   -3.3320   -0.1559    2.0671 H   0  0  0  0  0  0  0  0  0  0  0  0
   -1.2122   -0.6977    1.0770 H   0  0  0  0  0  0  0  0  0  0  0  0
   -4.9250    1.5590    2.0477 H   0  0  0  0  0  0  0  0  0  0  0  0
   -5.4665    1.1785    0.4049 H   0  0  0  0  0  0  0  0  0  0  0  0
   -4.0432    2.7092   -0.4697 H   0  0  0  0  0  0  0  0  0  0  0  0
   -3.4639    3.1434    1.1468 H   0  0  0  0  0  0  0  0  0  0  0  0
   -2.9796   -2.4441    0.7811 H   0  0  0  0  0  0  0  0  0  0  0  0
   -2.8094   -2.3372   -0.9726 H   0  0  0  0  0  0  0  0  0  0  0  0
   -0.4576   -3.1783   -0.7643 H   0  0  0  0  0  0  0  0  0  0  0  0
   -1.6247   -4.2775   -0.0253 H   0  0  0  0  0  0  0  0  0  0  0  0
   -0.6444   -3.2271    1.0038 H   0  0  0  0  0  0  0  0  0  0  0  0
    0.8026   -1.3004    1.0658 H   0  0  0  0  0  0  0  0  0  0  0  0
    0.8333    1.1987   -2.4878 H   0  0  0  0  0  0  0  0  0  0  0  0
    3.1777    1.8347   -2.0106 H   0  0  0  0  0  0  0  0  0  0  0  0
    5.3904   -0.6577    1.2786 H   0  0  0  0  0  0  0  0  0  0  0  0
    4.8151    0.7313    2.2347 H   0  0  0  0  0  0  0  0  0  0  0  0
  1 11  2  0  0  0  0
  2 16  1  0  0  0  0
  2 19  1  0  0  0  0
  3 17  1  0  0  0  0
  3 19  1  0  0  0  0
  4  5  1  0  0  0  0
  4  6  1  0  0  0  0
  4  7  1  0  0  0  0
  5  9  1  0  0  0  0
  5 22  1  0  0  0  0
  5 23  1  0  0  0  0
  6  8  1  0  0  0  0
  6 20  1  0  0  0  0
  6 21  1  0  0  0  0
  7 10  1  0  0  0  0
  7 11  1  0  0  0  0
  7 24  1  0  0  0  0
  8  9  1  0  0  0  0
  8 27  1  0  0  0  0
  8 28  1  0  0  0  0
  9 25  1  0  0  0  0
  9 26  1  0  0  0  0
 10 12  1  0  0  0  0
 10 29  1  0  0  0  0
 10 30  1  0  0  0  0
 11 13  1  0  0  0  0
 12 31  1  0  0  0  0
 12 32  1  0  0  0  0
 12 33  1  0  0  0  0
 13 14  2  0  0  0  0
 13 15  1  0  0  0  0
 14 16  1  0  0  0  0
 14 34  1  0  0  0  0
 15 18  2  0  0  0  0
 15 35  1  0  0  0  0
 16 17  2  0  0  0  0
 17 18  1  0  0  0  0
 18 36  1  0  0  0  0
 19 37  1  0  0  0  0
 19 38  1  0  0  0  0
M  END
> <PUBCHEM_COMPOUND_CID>
71300672

> <PUBCHEM_CONFORMER_RMSD>
0.8

> <PUBCHEM_CONFORMER_DIVERSEORDER>
1
37
11
40
9
31
8
36
22
20
14
23
2
34
12
39
17
7
16
38
18
25
21
19
24
13
15
4
35
29
10
27
6
30
33
28
26
32
3
5

> <PUBCHEM_MMFF94_PARTIAL_CHARGES>
18
1 -0.57
11 0.42
13 0.09
14 -0.15
15 -0.15
16 0.08
17 0.08
18 -0.15
19 0.56
2 -0.36
3 -0.36
34 0.15
35 0.15
36 0.15
4 -0.81
5 0.27
6 0.27
7 0.33

> <PUBCHEM_EFFECTIVE_ROTOR_COUNT>
5.6

> <PUBCHEM_PHARMACOPHORE_FEATURES>
8
1 1 acceptor
1 12 hydrophobe
1 2 acceptor
1 3 acceptor
1 4 cation
5 2 3 16 17 19 rings
5 4 5 6 8 9 rings
6 13 14 15 16 17 18 rings

> <PUBCHEM_HEAVY_ATOM_COUNT>
19

> <PUBCHEM_ATOM_DEF_STEREO_COUNT>
0

> <PUBCHEM_ATOM_UDEF_STEREO_COUNT>
1

> <PUBCHEM_BOND_DEF_STEREO_COUNT>
0

> <PUBCHEM_BOND_UDEF_STEREO_COUNT>
0

> <PUBCHEM_ISOTOPIC_ATOM_COUNT>
0

> <PUBCHEM_COMPONENT_COUNT>
1

> <PUBCHEM_CACTVS_TAUTO_COUNT>
2

> <PUBCHEM_CONFORMER_ID>
043FF64000000001

> <PUBCHEM_MMFF94_ENERGY>
42.3228

> <PUBCHEM_FEATURE_SELFOVERLAP>
40.751

> <PUBCHEM_SHAPE_FINGERPRINT>
10498660 4 17060055896286120145
11543360 7 11959721660061443073
11725454 13 17417802916246002419
11796584 16 12180935690763334288
12077114 3 17632573876884751484
12173636 292 18412259562426328015
12251169 10 18113339716880378924
12500047 106 18272087205936346962
12553582 1 17095515206643208738
12633257 1 18412543223377946721
12730499 353 15913055304839043213
12788726 201 17975430314530342475
12892183 10 17676497107557251353
13004483 165 17838892995058469303
13103583 49 16443639982324740161
13538477 17 18335425724147110013
13544653 18 13479146708654908773
13583140 156 17561075956131023514
13764800 53 17846227673701463771
13965767 371 17757003202846173665
14178342 30 18409443726249111058
14739800 52 18196932399771754952
15209294 21 18408038515896615264
15238133 3 18412553085045098160
15375358 24 16559030484748123464
15375462 189 17385718110786451192
15527383 91 16732988604434795420
15842332 3 17896892155823416374
1813 80 16877949274588268206
18186145 218 16200160854493569541
19433438 48 17896023477445117626
19862831 5 12319735843313116281
20388580 30 8429724186435275459
20871999 31 10231753358499324673
212916 134 18343016662399741483
21524375 3 18130227052116547911
21731228 192 18411704244861815763
231179 274 16630525142091824680
23382010 3 14404888160276281853
23402539 116 18200306741006640407
23493267 7 18200329791504929798
23503953 91 18333725840864100248
23557571 272 17631743775681101413
23559900 14 18129681711244405478
23598291 2 17968946417140912774
23622692 88 18113901541578736079
25 1 15482676749195698708
27216 239 17489300940664898089
4028521 119 15841550751932863577
495365 180 17346321436389570694
5352402 22 15936416615077098168
58807428 26 18335991857125212251
6992083 37 18040713692542551727
7097593 13 18187080650578292066
7615 1 18115306829134596476

> <PUBCHEM_SHAPE_MULTIPOLES>
368.42
8.56
2.25
1.52
2.2
1.53
0.37
-3.95
-4.32
-2.53
-0.05
0.79
-0.1
-1.04

> <PUBCHEM_SHAPE_SELFOVERLAP>
789.724

> <PUBCHEM_SHAPE_VOLUME>
205.9

> <PUBCHEM_COORDINATE_TYPE>
2
5
10

$$$$
