126112
  -OEChem-12271619473D

 43 45  0     1  0  0  0  0  0999 V2000
   -6.4570    0.9086   -0.1992 F   0  0  0  0  0  0  0  0  0  0  0  0
   -0.3852   -0.2293    0.4175 O   0  0  0  0  0  0  0  0  0  0  0  0
    2.3313    2.8030    0.3317 O   0  0  0  0  0  0  0  0  0  0  0  0
    0.6146    1.7709   -0.8190 O   0  0  0  0  0  0  0  0  0  0  0  0
   -1.0697   -2.4100    0.1431 O   0  0  0  0  0  0  0  0  0  0  0  0
    3.5038   -0.2496   -0.8243 N   0  0  2  0  0  0  0  0  0  0  0  0
    3.3839    0.2078    0.5762 C   0  0  1  0  0  0  0  0  0  0  0  0
    2.9403   -1.6102   -0.7743 C   0  0  1  0  0  0  0  0  0  0  0  0
    1.8942    0.5531    0.8259 C   0  0  2  0  0  0  0  0  0  0  0  0
    3.8242   -1.0078    1.4024 C   0  0  0  0  0  0  0  0  0  0  0  0
    3.5212   -2.2143    0.5090 C   0  0  0  0  0  0  0  0  0  0  0  0
    1.4094   -1.4436   -0.6952 C   0  0  0  0  0  0  0  0  0  0  0  0
    0.9689   -0.6462    0.5429 C   0  0  2  0  0  0  0  0  0  0  0  0
    4.8786   -0.2207   -1.3166 C   0  0  0  0  0  0  0  0  0  0  0  0
    1.5177    1.7585    0.0065 C   0  0  0  0  0  0  0  0  0  0  0  0
   -1.3105   -1.2152    0.2198 C   0  0  0  0  0  0  0  0  0  0  0  0
    2.0821    4.0207   -0.3777 C   0  0  0  0  0  0  0  0  0  0  0  0
   -2.6785   -0.6500    0.1076 C   0  0  0  0  0  0  0  0  0  0  0  0
   -3.6098   -1.3065   -0.6708 C   0  0  0  0  0  0  0  0  0  0  0  0
   -2.9775    0.5139    0.7863 C   0  0  0  0  0  0  0  0  0  0  0  0
   -4.8957   -0.7762   -0.7751 C   0  0  0  0  0  0  0  0  0  0  0  0
   -4.2634    1.0441    0.6820 C   0  0  0  0  0  0  0  0  0  0  0  0
   -5.2226    0.3991   -0.0987 C   0  0  0  0  0  0  0  0  0  0  0  0
    4.0213    1.0741    0.7871 H   0  0  0  0  0  0  0  0  0  0  0  0
    3.1893   -2.2059   -1.6599 H   0  0  0  0  0  0  0  0  0  0  0  0
    1.7431    0.8470    1.8739 H   0  0  0  0  0  0  0  0  0  0  0  0
    3.3098   -1.0748    2.3667 H   0  0  0  0  0  0  0  0  0  0  0  0
    4.9006   -0.9671    1.6076 H   0  0  0  0  0  0  0  0  0  0  0  0
    4.4523   -2.7528    0.2960 H   0  0  0  0  0  0  0  0  0  0  0  0
    2.8377   -2.9194    0.9930 H   0  0  0  0  0  0  0  0  0  0  0  0
    0.9857   -2.4516   -0.7013 H   0  0  0  0  0  0  0  0  0  0  0  0
    1.0396   -0.9565   -1.6075 H   0  0  0  0  0  0  0  0  0  0  0  0
    1.0207   -1.3081    1.4185 H   0  0  0  0  0  0  0  0  0  0  0  0
    5.2517    0.8093   -1.3253 H   0  0  0  0  0  0  0  0  0  0  0  0
    4.9130   -0.5751   -2.3527 H   0  0  0  0  0  0  0  0  0  0  0  0
    5.5746   -0.8277   -0.7287 H   0  0  0  0  0  0  0  0  0  0  0  0
    1.0672    4.3761   -0.1753 H   0  0  0  0  0  0  0  0  0  0  0  0
    2.2327    3.8706   -1.4510 H   0  0  0  0  0  0  0  0  0  0  0  0
    2.7939    4.7716   -0.0248 H   0  0  0  0  0  0  0  0  0  0  0  0
   -3.3665   -2.2203   -1.2047 H   0  0  0  0  0  0  0  0  0  0  0  0
   -2.2525    1.0278    1.4102 H   0  0  0  0  0  0  0  0  0  0  0  0
   -5.6426   -1.2775   -1.3836 H   0  0  0  0  0  0  0  0  0  0  0  0
   -4.5192    1.9577    1.2106 H   0  0  0  0  0  0  0  0  0  0  0  0
  1 23  1  0  0  0  0
  2 13  1  0  0  0  0
  2 16  1  0  0  0  0
  3 15  1  0  0  0  0
  3 17  1  0  0  0  0
  4 15  2  0  0  0  0
  5 16  2  0  0  0  0
  6  7  1  0  0  0  0
  6  8  1  0  0  0  0
  6 14  1  0  0  0  0
  7  9  1  0  0  0  0
  7 10  1  0  0  0  0
  7 24  1  0  0  0  0
  8 11  1  0  0  0  0
  8 12  1  0  0  0  0
  8 25  1  0  0  0  0
  9 13  1  0  0  0  0
  9 15  1  0  0  0  0
  9 26  1  0  0  0  0
 10 11  1  0  0  0  0
 10 27  1  0  0  0  0
 10 28  1  0  0  0  0
 11 29  1  0  0  0  0
 11 30  1  0  0  0  0
 12 13  1  0  0  0  0
 12 31  1  0  0  0  0
 12 32  1  0  0  0  0
 13 33  1  0  0  0  0
 14 34  1  0  0  0  0
 14 35  1  0  0  0  0
 14 36  1  0  0  0  0
 16 18  1  0  0  0  0
 17 37  1  0  0  0  0
 17 38  1  0  0  0  0
 17 39  1  0  0  0  0
 18 19  2  0  0  0  0
 18 20  1  0  0  0  0
 19 21  1  0  0  0  0
 19 40  1  0  0  0  0
 20 22  2  0  0  0  0
 20 41  1  0  0  0  0
 21 23  2  0  0  0  0
 21 42  1  0  0  0  0
 22 23  1  0  0  0  0
 22 43  1  0  0  0  0
M  END
> <PUBCHEM_COMPOUND_CID>
126112

> <PUBCHEM_CONFORMER_RMSD>
0.8

> <PUBCHEM_CONFORMER_DIVERSEORDER>
1
16
12
8
17
14
15
3
9
6
7
10
5
2
4
11
13

> <PUBCHEM_MMFF94_PARTIAL_CHARGES>
24
1 -0.19
13 0.28
14 0.27
15 0.66
16 0.63
17 0.28
18 0.09
19 -0.15
2 -0.43
20 -0.15
21 -0.15
22 -0.15
23 0.19
3 -0.43
4 -0.57
40 0.15
41 0.15
42 0.15
43 0.15
5 -0.57
6 -0.81
7 0.27
8 0.27
9 0.06

> <PUBCHEM_EFFECTIVE_ROTOR_COUNT>
6.2

> <PUBCHEM_PHARMACOPHORE_FEATURES>
5
1 4 acceptor
1 5 acceptor
1 6 cation
6 18 19 20 21 22 23 rings
8 6 7 8 9 10 11 12 13 rings

> <PUBCHEM_HEAVY_ATOM_COUNT>
23

> <PUBCHEM_ATOM_DEF_STEREO_COUNT>
4

> <PUBCHEM_ATOM_UDEF_STEREO_COUNT>
0

> <PUBCHEM_BOND_DEF_STEREO_COUNT>
0

> <PUBCHEM_BOND_UDEF_STEREO_COUNT>
0

> <PUBCHEM_ISOTOPIC_ATOM_COUNT>
0

> <PUBCHEM_COMPONENT_COUNT>
1

> <PUBCHEM_CACTVS_TAUTO_COUNT>
1

> <PUBCHEM_CONFORMER_ID>
0001ECA000000001

> <PUBCHEM_MMFF94_ENERGY>
63.9558

> <PUBCHEM_FEATURE_SELFOVERLAP>
25.371

> <PUBCHEM_SHAPE_FINGERPRINT>
10906281 52 18261965136809884000
10937287 8 17615970349426473260
11405975 8 18409448116016560555
116883 192 18270123409486585448
12011746 2 18343028770128969710
12166972 35 18202846543646017033
12553582 1 18409451362705575560
12617007 42 18272664428403560500
12633257 1 18335412478399540106
128620 24 10879991354913385787
13134695 92 18334855004898498108
13140716 1 18262233455557871066
13583140 156 18041285447543258339
14466204 15 18191296083733377433
15163728 17 17464836935939079860
15196674 1 18339640144259501833
15210252 30 18187379718179163972
15238133 3 18261108578433558266
15420108 30 17982994933486634520
15475509 8 17985009027691770540
15664445 248 18342190955607083236
15848700 24 18342175531894135022
1601671 61 18412831270186986734
17349148 13 18060138726142954939
17492 89 18268709583620851623
17818456 19 17846505785930148945
17844677 252 18410578426918041539
17980427 23 17914305083118466424
18186145 218 18335974333706000087
18222031 100 18272373031936325042
18335252 114 18265039247062785685
18681886 176 17988922318793205082
21033648 144 18262226845972357421
21033648 29 17023168441099852245
212847 35 18186519882215218339
21285901 2 18267591199689752638
21478907 32 17977382729437913474
21503847 285 18335420183839979001
21709351 56 18341323444937643287
21860390 5 18341333391660271524
221357 26 18409445848062922565
22289505 5 18408884005867977372
22393880 68 18126294270580144188
2255824 54 18410855507763374138
23557571 272 16271938060418766481
23558518 356 17753611552770947875
23559900 14 18202561808440806379
3004659 81 18202282507181744985
3060560 45 18131074840091001718
3411729 13 18129366268004665520
345986 75 17534600643788929634
34797466 226 16630803326801891867
34934 24 18410009970742778018
474 4 18336823216453430921
5104073 3 18338517542908648907
542803 24 17603868888633417023
543358 83 18410859884329605060
5895379 119 17702402687797165873
5939293 188 18410855490720583528
633830 44 18337100263741053847
67856867 119 18199457926065946377
7164475 11 18046348527175245390
7495541 125 18114467837370034627
84936 182 18055635276660481896
8509985 295 18261387810873072026
9709674 26 18268711782633102827
9971528 1 18343581820093011706
9981440 41 17761485198455359777

> <PUBCHEM_SHAPE_MULTIPOLES>
437.6
11.2
2.9
1.06
13.82
2.98
0.01
-0.41
1.29
-2.69
0.29
-0.75
-0.14
-0.59

> <PUBCHEM_SHAPE_SELFOVERLAP>
941.474

> <PUBCHEM_SHAPE_VOLUME>
242.7

> <PUBCHEM_COORDINATE_TYPE>
2
5
10

$$$$
