52940
  -OEChem-12271619543D

 40 42  0     1  0  0  0  0  0999 V2000
   -1.0605    2.7785   -0.4934 O   0  0  0  0  0  0  0  0  0  0  0  0
    0.3898    2.0614    1.1555 O   0  0  0  0  0  0  0  0  0  0  0  0
   -2.3499   -1.1042   -0.9620 N   0  0  1  0  0  0  0  0  0  0  0  0
   -2.1605    0.2054   -0.3074 C   0  0  2  0  0  0  0  0  0  0  0  0
   -1.9336   -2.0546    0.0854 C   0  0  1  0  0  0  0  0  0  0  0  0
   -0.6362    0.4794   -0.3475 C   0  0  2  0  0  0  0  0  0  0  0  0
    0.1756   -0.6077    0.4044 C   0  0  1  0  0  0  0  0  0  0  0  0
   -0.3915   -2.0227    0.1237 C   0  0  0  0  0  0  0  0  0  0  0  0
   -2.7029   -0.0054    1.1144 C   0  0  0  0  0  0  0  0  0  0  0  0
   -2.5472   -1.5037    1.3747 C   0  0  0  0  0  0  0  0  0  0  0  0
    1.6674   -0.5412    0.1160 C   0  0  0  0  0  0  0  0  0  0  0  0
   -3.7233   -1.3209   -1.4098 C   0  0  0  0  0  0  0  0  0  0  0  0
   -0.3577    1.8464    0.2111 C   0  0  0  0  0  0  0  0  0  0  0  0
    2.5806   -0.8319    1.1256 C   0  0  0  0  0  0  0  0  0  0  0  0
    2.1111   -0.1905   -1.1560 C   0  0  0  0  0  0  0  0  0  0  0  0
    3.9488   -0.7711    0.8613 C   0  0  0  0  0  0  0  0  0  0  0  0
    3.4794   -0.1299   -1.4203 C   0  0  0  0  0  0  0  0  0  0  0  0
    4.3981   -0.4201   -0.4117 C   0  0  0  0  0  0  0  0  0  0  0  0
   -0.8875    4.1328   -0.0642 C   0  0  0  0  0  0  0  0  0  0  0  0
   -2.7089    1.0002   -0.8261 H   0  0  0  0  0  0  0  0  0  0  0  0
   -2.2605   -3.0806   -0.1183 H   0  0  0  0  0  0  0  0  0  0  0  0
   -0.3652    0.5182   -1.4076 H   0  0  0  0  0  0  0  0  0  0  0  0
    0.0555   -0.4248    1.4824 H   0  0  0  0  0  0  0  0  0  0  0  0
   -0.0087   -2.3938   -0.8374 H   0  0  0  0  0  0  0  0  0  0  0  0
   -0.0253   -2.7209    0.8875 H   0  0  0  0  0  0  0  0  0  0  0  0
   -3.7649    0.2641    1.1635 H   0  0  0  0  0  0  0  0  0  0  0  0
   -2.1823    0.5928    1.8686 H   0  0  0  0  0  0  0  0  0  0  0  0
   -1.9301   -1.7028    2.2570 H   0  0  0  0  0  0  0  0  0  0  0  0
   -3.5333   -1.9477    1.5554 H   0  0  0  0  0  0  0  0  0  0  0  0
   -3.9876   -0.5861   -2.1782 H   0  0  0  0  0  0  0  0  0  0  0  0
   -4.4675   -1.2561   -0.6095 H   0  0  0  0  0  0  0  0  0  0  0  0
   -3.8138   -2.3081   -1.8763 H   0  0  0  0  0  0  0  0  0  0  0  0
    2.2432   -1.1088    2.1206 H   0  0  0  0  0  0  0  0  0  0  0  0
    1.4430    0.0015   -1.9866 H   0  0  0  0  0  0  0  0  0  0  0  0
    4.6643   -0.9982    1.6462 H   0  0  0  0  0  0  0  0  0  0  0  0
    3.8302    0.1333   -2.4139 H   0  0  0  0  0  0  0  0  0  0  0  0
    5.4634   -0.3754   -0.6183 H   0  0  0  0  0  0  0  0  0  0  0  0
   -1.4981    4.7735   -0.7059 H   0  0  0  0  0  0  0  0  0  0  0  0
    0.1605    4.4309   -0.1648 H   0  0  0  0  0  0  0  0  0  0  0  0
   -1.2250    4.2477    0.9703 H   0  0  0  0  0  0  0  0  0  0  0  0
  1 13  1  0  0  0  0
  1 19  1  0  0  0  0
  2 13  2  0  0  0  0
  3  4  1  0  0  0  0
  3  5  1  0  0  0  0
  3 12  1  0  0  0  0
  4  6  1  0  0  0  0
  4  9  1  0  0  0  0
  4 20  1  0  0  0  0
  5  8  1  0  0  0  0
  5 10  1  0  0  0  0
  5 21  1  0  0  0  0
  6  7  1  0  0  0  0
  6 13  1  0  0  0  0
  6 22  1  0  0  0  0
  7  8  1  0  0  0  0
  7 11  1  0  0  0  0
  7 23  1  0  0  0  0
  8 24  1  0  0  0  0
  8 25  1  0  0  0  0
  9 10  1  0  0  0  0
  9 26  1  0  0  0  0
  9 27  1  0  0  0  0
 10 28  1  0  0  0  0
 10 29  1  0  0  0  0
 11 14  2  0  0  0  0
 11 15  1  0  0  0  0
 12 30  1  0  0  0  0
 12 31  1  0  0  0  0
 12 32  1  0  0  0  0
 14 16  1  0  0  0  0
 14 33  1  0  0  0  0
 15 17  2  0  0  0  0
 15 34  1  0  0  0  0
 16 18  2  0  0  0  0
 16 35  1  0  0  0  0
 17 18  1  0  0  0  0
 17 36  1  0  0  0  0
 18 37  1  0  0  0  0
 19 38  1  0  0  0  0
 19 39  1  0  0  0  0
 19 40  1  0  0  0  0
M  END
> <PUBCHEM_COMPOUND_CID>
52940

> <PUBCHEM_CONFORMER_RMSD>
0.6

> <PUBCHEM_CONFORMER_DIVERSEORDER>
1
32
44
42
36
26
35
2
40
29
20
31
24
15
45
34
43
18
22
11
3
14
27
39
23
30
33
5
37
21
13
41
16
25
28
38
10
19
7
17
8
9
12
6
4

> <PUBCHEM_MMFF94_PARTIAL_CHARGES>
21
1 -0.43
11 -0.14
12 0.27
13 0.66
14 -0.15
15 -0.15
16 -0.15
17 -0.15
18 -0.15
19 0.28
2 -0.57
3 -0.81
33 0.15
34 0.15
35 0.15
36 0.15
37 0.15
4 0.27
5 0.27
6 0.06
7 0.14

> <PUBCHEM_EFFECTIVE_ROTOR_COUNT>
4.2

> <PUBCHEM_PHARMACOPHORE_FEATURES>
4
1 2 acceptor
1 3 cation
6 11 14 15 16 17 18 rings
8 3 4 5 6 7 8 9 10 rings

> <PUBCHEM_HEAVY_ATOM_COUNT>
19

> <PUBCHEM_ATOM_DEF_STEREO_COUNT>
0

> <PUBCHEM_ATOM_UDEF_STEREO_COUNT>
4

> <PUBCHEM_BOND_DEF_STEREO_COUNT>
0

> <PUBCHEM_BOND_UDEF_STEREO_COUNT>
0

> <PUBCHEM_ISOTOPIC_ATOM_COUNT>
0

> <PUBCHEM_COMPONENT_COUNT>
1

> <PUBCHEM_CACTVS_TAUTO_COUNT>
1

> <PUBCHEM_CONFORMER_ID>
0000CECC00000001

> <PUBCHEM_MMFF94_ENERGY>
52.9912

> <PUBCHEM_FEATURE_SELFOVERLAP>
20.297

> <PUBCHEM_SHAPE_FINGERPRINT>
104564 63 18337394829229274529
10863032 1 15792004584758289723
10989021 7 18200026386319671541
11132069 177 18131072614791137010
11578080 2 17678993101931505988
11680986 33 17980191216968401795
12553582 1 18409737282720483354
12788726 201 18337393721144004165
13027679 85 18335147548043016001
13140716 1 18410580603912735297
133893 2 17908149024762182137
13681431 1 18126566957790321377
14181834 199 17699275874322035853
14614273 12 18194126222051709629
15375462 189 18041575735502508346
15906896 17 18120377557956145081
16752209 62 18335976463682757270
16945 1 18335423452135998310
17134986 127 17472425344128614012
17357779 13 18130488804181669677
1813 80 18200325423391398951
18186145 218 17530972410094197182
18927931 339 18411986836873090358
19868273 325 18413110579957010566
200 152 18040710381381573286
20361792 2 18341613775609507695
20510252 161 18340209583544530224
20600515 1 18127711493850074110
20671657 53 18270105950597501743
21041028 32 18266478644694834233
21339142 126 18340770338431987951
21524375 3 17615966604108989257
22112679 90 18269016295539868245
22182313 1 17391899745874105663
2334 1 18267585903905359865
23402539 116 18413387623012866166
23419403 2 17056917975989010201
23557571 272 18201999894228656888
23558518 356 17902789665617401323
23559900 14 18340761569042615122
2748010 2 18267572684191195041
3286 77 16487251110291774922
350125 39 17690577289857965995
7364860 26 17765158654045106369
77492 1 17894353254995192226
81228 2 18341058410494562593
90316 7 18410297999264433224

> <PUBCHEM_SHAPE_MULTIPOLES>
374.29
6.3
3.06
1.31
5.02
4.43
-0.07
-3.13
-0.96
-2.27
0.18
-0.07
-0.3
-0.31

> <PUBCHEM_SHAPE_SELFOVERLAP>
800.476

> <PUBCHEM_SHAPE_VOLUME>
207.9

> <PUBCHEM_COORDINATE_TYPE>
2
5
10

$$$$
