71308139
  -OEChem-12271619483D

 39 40  0     1  0  0  0  0  0999 V2000
   -0.3272    2.7633   -0.5433 O   0  0  0  0  0  0  0  0  0  0  0  0
    1.4172    2.3283    0.8959 O   0  0  0  0  0  0  0  0  0  0  0  0
    2.8535    0.2579   -0.1011 N   0  0  0  0  0  0  0  0  0  0  0  0
    1.5422   -0.3605    0.1318 C   0  0  2  0  0  0  0  0  0  0  0  0
    1.4830   -1.7617   -0.4918 C   0  0  0  0  0  0  0  0  0  0  0  0
    0.4553    0.5356   -0.4594 C   0  0  1  0  0  0  0  0  0  0  0  0
    2.6122   -2.6466    0.0290 C   0  0  0  0  0  0  0  0  0  0  0  0
    3.9587   -1.9522   -0.1424 C   0  0  0  0  0  0  0  0  0  0  0  0
    3.9380   -0.5489    0.4589 C   0  0  0  0  0  0  0  0  0  0  0  0
   -0.9425   -0.0189   -0.2288 C   0  0  0  0  0  0  0  0  0  0  0  0
    0.5938    1.9590    0.0685 C   0  0  0  0  0  0  0  0  0  0  0  0
   -1.7499   -0.3494   -1.3172 C   0  0  0  0  0  0  0  0  0  0  0  0
   -1.4179   -0.1938    1.0709 C   0  0  0  0  0  0  0  0  0  0  0  0
   -3.0325   -0.8549   -1.1059 C   0  0  0  0  0  0  0  0  0  0  0  0
   -2.7006   -0.6993    1.2821 C   0  0  0  0  0  0  0  0  0  0  0  0
   -3.5079   -1.0300    0.1938 C   0  0  0  0  0  0  0  0  0  0  0  0
   -4.8798   -1.5699    0.4191 C   0  0  0  0  0  0  0  0  0  0  0  0
   -0.2958    4.1419   -0.1600 C   0  0  0  0  0  0  0  0  0  0  0  0
    1.3998   -0.4517    1.2176 H   0  0  0  0  0  0  0  0  0  0  0  0
    0.5328   -2.2578   -0.2653 H   0  0  0  0  0  0  0  0  0  0  0  0
    1.5560   -1.6938   -1.5853 H   0  0  0  0  0  0  0  0  0  0  0  0
    0.6346    0.6126   -1.5429 H   0  0  0  0  0  0  0  0  0  0  0  0
    2.6138   -3.6053   -0.5012 H   0  0  0  0  0  0  0  0  0  0  0  0
    2.4455   -2.8655    1.0910 H   0  0  0  0  0  0  0  0  0  0  0  0
    4.7459   -2.5482    0.3328 H   0  0  0  0  0  0  0  0  0  0  0  0
    4.2040   -1.8910   -1.2103 H   0  0  0  0  0  0  0  0  0  0  0  0
    2.8929    1.1829    0.3232 H   0  0  0  0  0  0  0  0  0  0  0  0
    3.8424   -0.6042    1.5502 H   0  0  0  0  0  0  0  0  0  0  0  0
    4.8923   -0.0547    0.2465 H   0  0  0  0  0  0  0  0  0  0  0  0
   -1.3931   -0.2188   -2.3353 H   0  0  0  0  0  0  0  0  0  0  0  0
   -0.8067    0.0649    1.9312 H   0  0  0  0  0  0  0  0  0  0  0  0
   -3.6515   -1.1103   -1.9619 H   0  0  0  0  0  0  0  0  0  0  0  0
   -3.0597   -0.8311    2.2993 H   0  0  0  0  0  0  0  0  0  0  0  0
   -4.8485   -2.6624    0.4778 H   0  0  0  0  0  0  0  0  0  0  0  0
   -5.3102   -1.1808    1.3481 H   0  0  0  0  0  0  0  0  0  0  0  0
   -5.5562   -1.2810   -0.3926 H   0  0  0  0  0  0  0  0  0  0  0  0
   -1.0743    4.6678   -0.7189 H   0  0  0  0  0  0  0  0  0  0  0  0
    0.6742    4.5823   -0.4096 H   0  0  0  0  0  0  0  0  0  0  0  0
   -0.5030    4.2419    0.9096 H   0  0  0  0  0  0  0  0  0  0  0  0
  1 11  1  0  0  0  0
  1 18  1  0  0  0  0
  2 11  2  0  0  0  0
  3  4  1  0  0  0  0
  3  9  1  0  0  0  0
  3 27  1  0  0  0  0
  4  5  1  0  0  0  0
  4  6  1  0  0  0  0
  4 19  1  0  0  0  0
  5  7  1  0  0  0  0
  5 20  1  0  0  0  0
  5 21  1  0  0  0  0
  6 10  1  0  0  0  0
  6 11  1  0  0  0  0
  6 22  1  0  0  0  0
  7  8  1  0  0  0  0
  7 23  1  0  0  0  0
  7 24  1  0  0  0  0
  8  9  1  0  0  0  0
  8 25  1  0  0  0  0
  8 26  1  0  0  0  0
  9 28  1  0  0  0  0
  9 29  1  0  0  0  0
 10 12  2  0  0  0  0
 10 13  1  0  0  0  0
 12 14  1  0  0  0  0
 12 30  1  0  0  0  0
 13 15  2  0  0  0  0
 13 31  1  0  0  0  0
 14 16  2  0  0  0  0
 14 32  1  0  0  0  0
 15 16  1  0  0  0  0
 15 33  1  0  0  0  0
 16 17  1  0  0  0  0
 17 34  1  0  0  0  0
 17 35  1  0  0  0  0
 17 36  1  0  0  0  0
 18 37  1  0  0  0  0
 18 38  1  0  0  0  0
 18 39  1  0  0  0  0
M  END
> <PUBCHEM_COMPOUND_CID>
71308139

> <PUBCHEM_CONFORMER_RMSD>
0.6

> <PUBCHEM_CONFORMER_DIVERSEORDER>
1
35
36
26
15
28
46
40
14
52
53
12
30
51
25
48
10
29
31
38
45
16
21
41
47
17
32
50
43
22
24
34
2
20
37
13
11
19
42
23
49
44
18
27
4
39
8
5
33
3
9
6
7

> <PUBCHEM_MMFF94_PARTIAL_CHARGES>
20
1 -0.43
10 -0.14
11 0.66
12 -0.15
13 -0.15
14 -0.15
15 -0.15
16 -0.14
17 0.14
18 0.28
2 -0.57
27 0.36
3 -0.9
30 0.15
31 0.15
32 0.15
33 0.15
4 0.27
6 0.2
9 0.27

> <PUBCHEM_EFFECTIVE_ROTOR_COUNT>
5.2

> <PUBCHEM_PHARMACOPHORE_FEATURES>
5
1 2 acceptor
1 3 cation
1 3 donor
6 10 12 13 14 15 16 rings
6 3 4 5 7 8 9 rings

> <PUBCHEM_HEAVY_ATOM_COUNT>
18

> <PUBCHEM_ATOM_DEF_STEREO_COUNT>
0

> <PUBCHEM_ATOM_UDEF_STEREO_COUNT>
2

> <PUBCHEM_BOND_DEF_STEREO_COUNT>
0

> <PUBCHEM_BOND_UDEF_STEREO_COUNT>
0

> <PUBCHEM_ISOTOPIC_ATOM_COUNT>
0

> <PUBCHEM_COMPONENT_COUNT>
1

> <PUBCHEM_CACTVS_TAUTO_COUNT>
1

> <PUBCHEM_CONFORMER_ID>
0440136B00000001

> <PUBCHEM_MMFF94_ENERGY>
33.3275

> <PUBCHEM_FEATURE_SELFOVERLAP>
25.372

> <PUBCHEM_SHAPE_FINGERPRINT>
10618630 7 18336267842912198254
11578080 2 17200757139275267953
11582403 64 15952376228650396213
12236239 1 17632301210949560731
12363563 72 18334862696863626474
12532896 13 17401482646069685788
12553582 1 18413102875060261270
12788726 201 18048025273210923545
13134695 92 18336826493539955589
13140716 1 18053660270677945338
13583140 156 13829551082775892542
14787075 74 18114748239137885362
14790565 3 18050015681469137028
15375462 189 18201998841397556666
15422964 175 18409451358041836870
15906896 17 17835233446350279789
16945 1 18341325703473190606
1813 80 18200891607508000454
18785283 64 17974009745343212401
19591789 44 17326907673263380004
20097449 115 18410575080399974508
20361792 2 18341610408302439175
20645477 70 18190454047032012395
20671657 53 18411705400134100419
21041028 32 18410859862907931869
21061003 4 18410293609865950263
21296965 67 18410011009475828751
2255824 54 18124320664150862701
23175994 123 18334016094769664623
23526113 38 17822014249951188011
23558518 356 17972044643597822586
23559900 14 18193274311679409299
23598288 3 18052250692355103286
23598291 2 17988077936575226903
23728640 28 17255954572604244370
2748010 2 18266715004923890220
3091708 16 9066836228703601344
31174 14 18190461756466354959
3286 77 18188775067069813911
3729539 64 17610657415326539836
458136 41 17686355565024490389
57672749 33 18270398416073698096
6443956 14 18408042931165193397
7364860 26 18193559097648558929
77492 1 17560241452379763663
81228 2 18118120277637894928
9709674 26 17837766730089507950

> <PUBCHEM_SHAPE_MULTIPOLES>
353.71
6.97
3.5
1.04
1.45
4.53
0
-6.53
-0.82
-1.08
0.12
0.66
-0.1
0.39

> <PUBCHEM_SHAPE_SELFOVERLAP>
732.522

> <PUBCHEM_SHAPE_VOLUME>
201

> <PUBCHEM_COORDINATE_TYPE>
2
5
10

$$$$
