56603536
  -OEChem-12271618413D

 28 28  0     1  0  0  0  0  0999 V2000
    1.1711    0.9159   -1.4126 O   0  0  0  0  0  0  0  0  0  0  0  0
    3.1898   -0.2622   -0.0119 N   0  0  0  0  0  0  0  0  0  0  0  0
    1.9258   -0.0106    0.6829 C   0  0  2  0  0  0  0  0  0  0  0  0
    0.8453    0.3084   -0.3716 C   0  0  0  0  0  0  0  0  0  0  0  0
   -0.5427   -0.0768   -0.1551 C   0  0  0  0  0  0  0  0  0  0  0  0
   -1.5586    0.8782   -0.1159 C   0  0  0  0  0  0  0  0  0  0  0  0
    2.0939    1.1621    1.6402 C   0  0  0  0  0  0  0  0  0  0  0  0
   -0.8480   -1.4272    0.0143 C   0  0  0  0  0  0  0  0  0  0  0  0
   -2.8799    0.4827    0.0926 C   0  0  0  0  0  0  0  0  0  0  0  0
   -1.2597    2.3310   -0.2944 C   0  0  0  0  0  0  0  0  0  0  0  0
   -2.1694   -1.8226    0.2229 C   0  0  0  0  0  0  0  0  0  0  0  0
    3.2179   -1.6112   -0.5536 C   0  0  0  0  0  0  0  0  0  0  0  0
   -3.1853   -0.8678    0.2621 C   0  0  0  0  0  0  0  0  0  0  0  0
    1.6285   -0.8856    1.2726 H   0  0  0  0  0  0  0  0  0  0  0  0
    2.3784    2.0779    1.1091 H   0  0  0  0  0  0  0  0  0  0  0  0
    1.1538    1.3704    2.1630 H   0  0  0  0  0  0  0  0  0  0  0  0
    2.8579    0.9527    2.3968 H   0  0  0  0  0  0  0  0  0  0  0  0
    3.9653   -0.1634    0.6434 H   0  0  0  0  0  0  0  0  0  0  0  0
   -0.0699   -2.1852   -0.0205 H   0  0  0  0  0  0  0  0  0  0  0  0
   -3.6837    1.2135    0.1244 H   0  0  0  0  0  0  0  0  0  0  0  0
   -0.4428    2.6489    0.3616 H   0  0  0  0  0  0  0  0  0  0  0  0
   -0.9953    2.5420   -1.3354 H   0  0  0  0  0  0  0  0  0  0  0  0
   -2.1250    2.9539   -0.0413 H   0  0  0  0  0  0  0  0  0  0  0  0
    2.4270   -1.7726   -1.2929 H   0  0  0  0  0  0  0  0  0  0  0  0
    3.1305   -2.3667    0.2345 H   0  0  0  0  0  0  0  0  0  0  0  0
    4.1726   -1.7750   -1.0635 H   0  0  0  0  0  0  0  0  0  0  0  0
   -2.4074   -2.8743    0.3532 H   0  0  0  0  0  0  0  0  0  0  0  0
   -4.2141   -1.1760    0.4238 H   0  0  0  0  0  0  0  0  0  0  0  0
  1  4  2  0  0  0  0
  2  3  1  0  0  0  0
  2 12  1  0  0  0  0
  2 18  1  0  0  0  0
  3  4  1  0  0  0  0
  3  7  1  0  0  0  0
  3 14  1  0  0  0  0
  4  5  1  0  0  0  0
  5  6  1  0  0  0  0
  5  8  2  0  0  0  0
  6  9  2  0  0  0  0
  6 10  1  0  0  0  0
  7 15  1  0  0  0  0
  7 16  1  0  0  0  0
  7 17  1  0  0  0  0
  8 11  1  0  0  0  0
  8 19  1  0  0  0  0
  9 13  1  0  0  0  0
  9 20  1  0  0  0  0
 10 21  1  0  0  0  0
 10 22  1  0  0  0  0
 10 23  1  0  0  0  0
 11 13  2  0  0  0  0
 11 27  1  0  0  0  0
 12 24  1  0  0  0  0
 12 25  1  0  0  0  0
 12 26  1  0  0  0  0
 13 28  1  0  0  0  0
M  END
> <PUBCHEM_COMPOUND_CID>
56603536

> <PUBCHEM_CONFORMER_RMSD>
0.6

> <PUBCHEM_CONFORMER_DIVERSEORDER>
1
3
26
14
11
15
18
27
30
4
19
32
34
16
2
13
36
31
9
8
23
20
29
28
10
17
6
35
25
12
24
33
7
21
22
5
37

> <PUBCHEM_MMFF94_PARTIAL_CHARGES>
17
1 -0.57
10 0.14
11 -0.15
12 0.27
13 -0.15
18 0.36
19 0.15
2 -0.9
20 0.15
27 0.15
28 0.15
3 0.33
4 0.42
5 0.09
6 -0.14
8 -0.15
9 -0.15

> <PUBCHEM_EFFECTIVE_ROTOR_COUNT>
3

> <PUBCHEM_PHARMACOPHORE_FEATURES>
4
1 1 acceptor
1 2 cation
1 2 donor
6 5 6 8 9 11 13 rings

> <PUBCHEM_HEAVY_ATOM_COUNT>
13

> <PUBCHEM_ATOM_DEF_STEREO_COUNT>
0

> <PUBCHEM_ATOM_UDEF_STEREO_COUNT>
1

> <PUBCHEM_BOND_DEF_STEREO_COUNT>
0

> <PUBCHEM_BOND_UDEF_STEREO_COUNT>
0

> <PUBCHEM_ISOTOPIC_ATOM_COUNT>
0

> <PUBCHEM_COMPONENT_COUNT>
1

> <PUBCHEM_CACTVS_TAUTO_COUNT>
2

> <PUBCHEM_CONFORMER_ID>
035FB39000000001

> <PUBCHEM_MMFF94_ENERGY>
33.5912

> <PUBCHEM_FEATURE_SELFOVERLAP>
20.297

> <PUBCHEM_SHAPE_FINGERPRINT>
10857977 72 18339355391906239873
12032990 46 18335990847818563899
124424 183 17845931806289422112
12716758 59 18339074896007986361
12932764 1 17775003539436724654
14993402 34 17821450127419025151
15076042 46 18408608049929419157
15219456 202 18130781291602109856
16945 1 18261662697480395417
17804303 29 18341055116460400654
17841504 4 17918270948423896194
19049666 15 18129092317245725624
20361792 2 16805310107170096382
20510252 161 18340768152510308705
20559304 39 18046915050061285599
20715346 28 18341038688036173336
20871998 184 18342178881837030271
23402539 116 18271799108663073319
23419403 2 16890835786688103653
23552423 10 18041000699511083247
23559900 14 18412539886915941848
2748010 2 18338231669468701439
31174 14 17774717683456202777
3286 77 17561079215799704379
369184 2 17775280599334793435
5084963 1 18410580560873027393
57812782 119 18201994408885474355
7364860 26 18193001636716336532
8030462 33 15357689777956564108
81228 2 18335413574048951193

> <PUBCHEM_SHAPE_MULTIPOLES>
256.68
5.09
1.99
1.02
1.37
0.18
0.14
-1.6
0.39
-0.51
-0.07
0.66
0.32
0.72

> <PUBCHEM_SHAPE_SELFOVERLAP>
523.67

> <PUBCHEM_SHAPE_VOLUME>
150.8

> <PUBCHEM_COORDINATE_TYPE>
2
5
10

$$$$
