414532
  -OEChem-12271619043D

 25 25  0     1  0  0  0  0  0999 V2000
   -1.8907   -1.5151    0.6881 O   0  0  0  0  0  0  0  0  0  0  0  0
   -3.2371    1.0712    0.8446 N   0  0  0  0  0  0  0  0  0  0  0  0
   -2.4447    0.6152   -0.2989 C   0  0  1  0  0  0  0  0  0  0  0  0
   -0.0132   -0.2364    0.1021 C   0  0  0  0  0  0  0  0  0  0  0  0
   -1.4479   -0.4563    0.1937 C   0  0  0  0  0  0  0  0  0  0  0  0
   -3.3682    0.0315   -1.3601 C   0  0  0  0  0  0  0  0  0  0  0  0
    0.5007    1.0579    0.1803 C   0  0  0  0  0  0  0  0  0  0  0  0
    0.8491   -1.3205   -0.0622 C   0  0  0  0  0  0  0  0  0  0  0  0
    2.7392    0.1843   -0.0701 C   0  0  0  0  0  0  0  0  0  0  0  0
    1.8769    1.2683    0.0941 C   0  0  0  0  0  0  0  0  0  0  0  0
    2.2253   -1.1101   -0.1483 C   0  0  0  0  0  0  0  0  0  0  0  0
    4.2106    0.4099   -0.1633 C   0  0  0  0  0  0  0  0  0  0  0  0
   -1.9282    1.4689   -0.7432 H   0  0  0  0  0  0  0  0  0  0  0  0
   -2.7876   -0.3300   -2.2161 H   0  0  0  0  0  0  0  0  0  0  0  0
   -3.9457   -0.8181   -0.9778 H   0  0  0  0  0  0  0  0  0  0  0  0
   -4.0750    0.7847   -1.7253 H   0  0  0  0  0  0  0  0  0  0  0  0
   -0.1359    1.9228    0.3404 H   0  0  0  0  0  0  0  0  0  0  0  0
    0.4673   -2.3359   -0.1292 H   0  0  0  0  0  0  0  0  0  0  0  0
    2.2664    2.2804    0.1650 H   0  0  0  0  0  0  0  0  0  0  0  0
    2.8870   -1.9627   -0.2755 H   0  0  0  0  0  0  0  0  0  0  0  0
   -2.6185    1.4351    1.5682 H   0  0  0  0  0  0  0  0  0  0  0  0
   -3.7385    0.2859    1.2578 H   0  0  0  0  0  0  0  0  0  0  0  0
    4.6895   -0.3553   -0.7835 H   0  0  0  0  0  0  0  0  0  0  0  0
    4.4332    1.3793   -0.6222 H   0  0  0  0  0  0  0  0  0  0  0  0
    4.6585    0.3830    0.8350 H   0  0  0  0  0  0  0  0  0  0  0  0
  1  5  2  0  0  0  0
  2  3  1  0  0  0  0
  2 21  1  0  0  0  0
  2 22  1  0  0  0  0
  3  5  1  0  0  0  0
  3  6  1  0  0  0  0
  3 13  1  0  0  0  0
  4  5  1  0  0  0  0
  4  7  2  0  0  0  0
  4  8  1  0  0  0  0
  6 14  1  0  0  0  0
  6 15  1  0  0  0  0
  6 16  1  0  0  0  0
  7 10  1  0  0  0  0
  7 17  1  0  0  0  0
  8 11  2  0  0  0  0
  8 18  1  0  0  0  0
  9 10  2  0  0  0  0
  9 11  1  0  0  0  0
  9 12  1  0  0  0  0
 10 19  1  0  0  0  0
 11 20  1  0  0  0  0
 12 23  1  0  0  0  0
 12 24  1  0  0  0  0
 12 25  1  0  0  0  0
M  END
> <PUBCHEM_COMPOUND_CID>
414532

> <PUBCHEM_CONFORMER_RMSD>
0.6

> <PUBCHEM_CONFORMER_DIVERSEORDER>
2
5
8
6
1
4
3
7

> <PUBCHEM_MMFF94_PARTIAL_CHARGES>
17
1 -0.57
10 -0.15
11 -0.15
12 0.14
17 0.15
18 0.15
19 0.15
2 -0.99
20 0.15
21 0.36
22 0.36
3 0.33
4 0.09
5 0.42
7 -0.15
8 -0.15
9 -0.14

> <PUBCHEM_EFFECTIVE_ROTOR_COUNT>
2

> <PUBCHEM_PHARMACOPHORE_FEATURES>
4
1 1 acceptor
1 2 cation
1 2 donor
6 4 7 8 9 10 11 rings

> <PUBCHEM_HEAVY_ATOM_COUNT>
12

> <PUBCHEM_ATOM_DEF_STEREO_COUNT>
0

> <PUBCHEM_ATOM_UDEF_STEREO_COUNT>
1

> <PUBCHEM_BOND_DEF_STEREO_COUNT>
0

> <PUBCHEM_BOND_UDEF_STEREO_COUNT>
0

> <PUBCHEM_ISOTOPIC_ATOM_COUNT>
0

> <PUBCHEM_COMPONENT_COUNT>
1

> <PUBCHEM_CACTVS_TAUTO_COUNT>
4

> <PUBCHEM_CONFORMER_ID>
0006534400000002

> <PUBCHEM_MMFF94_ENERGY>
28.3304

> <PUBCHEM_FEATURE_SELFOVERLAP>
20.297

> <PUBCHEM_SHAPE_FINGERPRINT>
10130415 120 18335696088391631114
10608611 8 18335699476693851780
11062470 55 17917712387779526904
11401426 45 18272362084243918684
11471102 20 18410290268223015060
11543360 7 16200147750838519108
12138202 97 18040989674440979599
124424 183 18040708165236016202
12932764 1 17385441029144500994
13380535 76 18408882936300021954
13705890 14 15554448513618968308
14144814 61 18410573963713583609
14325111 11 18410295856339411944
14993402 34 17703783730304175596
15775835 57 18202004300422120805
16945 1 18334576815387230284
17844478 74 17822304444070510529
18186145 218 18187088308447088430
19026448 4 16009031657489433088
19026448 5 15051745196256495530
200 152 18130781309119706047
20201158 50 18410008823469330950
20645464 45 18113903753777128187
20645477 70 18339073770521326903
23402539 116 18342167882715656229
23402655 69 18342165623552640429
23559900 14 18340775918839496612
25 1 18336264552708533287
2748010 2 18194403526868363960
3248919 1 18411133645165224538
528886 8 18411416215622333394
53812653 166 18411981373378894472
57812782 119 11672061926249501220
6333449 129 18334295400614044739
8030462 33 18201997733327259561

> <PUBCHEM_SHAPE_MULTIPOLES>
236.1
6.22
1.39
0.86
0.49
0.17
0.13
-1.18
0.95
0.08
-0.18
-0.71
-0.01
0

> <PUBCHEM_SHAPE_SELFOVERLAP>
484.176

> <PUBCHEM_SHAPE_VOLUME>
138.2

> <PUBCHEM_COORDINATE_TYPE>
2
5
10

$$$$
