82100531
  -OEChem-12271618433D

 34 34  0     1  0  0  0  0  0999 V2000
    1.2491    1.0529   -1.3552 O   0  0  0  0  0  0  0  0  0  0  0  0
    3.1790    0.0878    0.3090 N   0  0  0  0  0  0  0  0  0  0  0  0
    1.8517    0.3458    0.8710 C   0  0  2  0  0  0  0  0  0  0  0  0
   -0.5315    0.1027   -0.1593 C   0  0  0  0  0  0  0  0  0  0  0  0
    0.8559    0.5256   -0.2941 C   0  0  0  0  0  0  0  0  0  0  0  0
   -1.5795    1.0141   -0.2900 C   0  0  0  0  0  0  0  0  0  0  0  0
    1.8960    1.6038    1.7287 C   0  0  0  0  0  0  0  0  0  0  0  0
    3.3003   -1.3009   -0.1039 C   0  0  0  0  0  0  0  0  0  0  0  0
   -0.8034   -1.2395    0.1061 C   0  0  0  0  0  0  0  0  0  0  0  0
   -2.8993    0.5831   -0.1551 C   0  0  0  0  0  0  0  0  0  0  0  0
   -3.1712   -0.7590    0.1105 C   0  0  0  0  0  0  0  0  0  0  0  0
   -2.1232   -1.6703    0.2412 C   0  0  0  0  0  0  0  0  0  0  0  0
   -1.3164    2.4568   -0.5753 C   0  0  0  0  0  0  0  0  0  0  0  0
    4.6741   -1.5819   -0.6886 C   0  0  0  0  0  0  0  0  0  0  0  0
   -4.5817   -1.2209    0.2551 C   0  0  0  0  0  0  0  0  0  0  0  0
    1.5342   -0.4852    1.5117 H   0  0  0  0  0  0  0  0  0  0  0  0
    3.8941    0.2860    1.0089 H   0  0  0  0  0  0  0  0  0  0  0  0
    2.1938    2.4807    1.1421 H   0  0  0  0  0  0  0  0  0  0  0  0
    0.9076    1.8174    2.1504 H   0  0  0  0  0  0  0  0  0  0  0  0
    2.5984    1.4935    2.5620 H   0  0  0  0  0  0  0  0  0  0  0  0
    3.1433   -1.9714    0.7497 H   0  0  0  0  0  0  0  0  0  0  0  0
    2.5505   -1.5489   -0.8638 H   0  0  0  0  0  0  0  0  0  0  0  0
    0.0008   -1.9641    0.2045 H   0  0  0  0  0  0  0  0  0  0  0  0
   -3.7197    1.2898   -0.2559 H   0  0  0  0  0  0  0  0  0  0  0  0
   -2.3218   -2.7185    0.4485 H   0  0  0  0  0  0  0  0  0  0  0  0
   -0.5685    2.8646    0.1124 H   0  0  0  0  0  0  0  0  0  0  0  0
   -0.9730    2.5861   -1.6066 H   0  0  0  0  0  0  0  0  0  0  0  0
   -2.2203    3.0634   -0.4503 H   0  0  0  0  0  0  0  0  0  0  0  0
    4.8651   -0.9557   -1.5667 H   0  0  0  0  0  0  0  0  0  0  0  0
    5.4640   -1.3925    0.0460 H   0  0  0  0  0  0  0  0  0  0  0  0
    4.7466   -2.6293   -0.9988 H   0  0  0  0  0  0  0  0  0  0  0  0
   -4.9076   -1.1128    1.2943 H   0  0  0  0  0  0  0  0  0  0  0  0
   -5.2539   -0.6412   -0.3867 H   0  0  0  0  0  0  0  0  0  0  0  0
   -4.6872   -2.2712   -0.0375 H   0  0  0  0  0  0  0  0  0  0  0  0
  1  5  2  0  0  0  0
  2  3  1  0  0  0  0
  2  8  1  0  0  0  0
  2 17  1  0  0  0  0
  3  5  1  0  0  0  0
  3  7  1  0  0  0  0
  3 16  1  0  0  0  0
  4  5  1  0  0  0  0
  4  6  2  0  0  0  0
  4  9  1  0  0  0  0
  6 10  1  0  0  0  0
  6 13  1  0  0  0  0
  7 18  1  0  0  0  0
  7 19  1  0  0  0  0
  7 20  1  0  0  0  0
  8 14  1  0  0  0  0
  8 21  1  0  0  0  0
  8 22  1  0  0  0  0
  9 12  2  0  0  0  0
  9 23  1  0  0  0  0
 10 11  2  0  0  0  0
 10 24  1  0  0  0  0
 11 12  1  0  0  0  0
 11 15  1  0  0  0  0
 12 25  1  0  0  0  0
 13 26  1  0  0  0  0
 13 27  1  0  0  0  0
 13 28  1  0  0  0  0
 14 29  1  0  0  0  0
 14 30  1  0  0  0  0
 14 31  1  0  0  0  0
 15 32  1  0  0  0  0
 15 33  1  0  0  0  0
 15 34  1  0  0  0  0
M  END
> <PUBCHEM_COMPOUND_CID>
82100531

> <PUBCHEM_CONFORMER_RMSD>
0.6

> <PUBCHEM_CONFORMER_DIVERSEORDER>
1
59
70
38
34
67
72
18
52
21
24
27
7
60
64
56
48
44
14
25
39
45
47
9
55
37
33
71
66
49
10
51
69
22
46
65
20
54
17
53
5
40
42
13
4
35
41
12
43
23
62
31
63
28
57
30
6
19
50
61
32
15
26
3
36
11
29
68
2
16
8
58

> <PUBCHEM_MMFF94_PARTIAL_CHARGES>
17
1 -0.57
10 -0.15
11 -0.14
12 -0.15
13 0.14
15 0.14
17 0.36
2 -0.9
23 0.15
24 0.15
25 0.15
3 0.33
4 0.09
5 0.42
6 -0.14
8 0.27
9 -0.15

> <PUBCHEM_EFFECTIVE_ROTOR_COUNT>
4

> <PUBCHEM_PHARMACOPHORE_FEATURES>
4
1 1 acceptor
1 2 cation
1 2 donor
6 4 6 9 10 11 12 rings

> <PUBCHEM_HEAVY_ATOM_COUNT>
15

> <PUBCHEM_ATOM_DEF_STEREO_COUNT>
0

> <PUBCHEM_ATOM_UDEF_STEREO_COUNT>
1

> <PUBCHEM_BOND_DEF_STEREO_COUNT>
0

> <PUBCHEM_BOND_UDEF_STEREO_COUNT>
0

> <PUBCHEM_ISOTOPIC_ATOM_COUNT>
0

> <PUBCHEM_COMPONENT_COUNT>
1

> <PUBCHEM_CACTVS_TAUTO_COUNT>
28

> <PUBCHEM_CONFORMER_ID>
04E4C13300000001

> <PUBCHEM_MMFF94_ENERGY>
31.6772

> <PUBCHEM_FEATURE_SELFOVERLAP>
20.297

> <PUBCHEM_SHAPE_FINGERPRINT>
10130415 120 17896033411920556097
10465860 250 18130503021040305922
10465860 71 17821453447776917566
10618630 7 18333730251531781887
11543360 7 13623530194848291563
12032990 46 18335423499770996259
12186901 62 18041276561070864447
124424 183 17845929620066873816
12507560 14 17489588969503460274
12507560 40 18272081708436178504
12932764 1 17846211219550020516
13581323 91 18412823607480033839
13675066 3 18335979878566801707
14252887 29 18264489657844799691
14993402 34 17167864157702407646
15219456 202 18201147828082304544
16752209 62 17894898616988763359
16945 1 17240748610712954923
17804303 29 18412546479078941410
18186145 218 16805878602258612719
19049666 15 18199735960794841544
19422 9 17532089406496626250
20510252 161 18411132533085615489
20559304 39 18116716403210489365
20871999 31 17967817098408265566
22094290 60 18261679177449225822
23175994 123 17703509879253202096
23402539 116 18343295968940330567
23463225 33 18334015025238574263
23559900 14 18410848867839009924
2748010 2 18336530699221381669
31174 14 17988072413004976728
3286 77 17918275376461377177
4340502 62 14979962475957405391
474 4 16372149891242840092
6049 1 18342164558137104192
7364860 26 18191590954750241316

> <PUBCHEM_SHAPE_MULTIPOLES>
297.84
7.4
2.11
1.04
2.19
0.5
0.19
-4.64
-0.15
-0.1
-0.07
0.65
0.45
1.09

> <PUBCHEM_SHAPE_SELFOVERLAP>
603.249

> <PUBCHEM_SHAPE_VOLUME>
175.7

> <PUBCHEM_COORDINATE_TYPE>
2
5
10

$$$$
