11322641
  -OEChem-12271619333D

 38 39  0     1  0  0  0  0  0999 V2000
    5.0880   -0.7081    0.8407 F   0  0  0  0  0  0  0  0  0  0  0  0
   -0.3593    0.3540   -2.0711 O   0  0  0  0  0  0  0  0  0  0  0  0
   -2.2093   -0.6274   -0.1031 N   0  0  0  0  0  0  0  0  0  0  0  0
   -1.2461    0.4282    0.1729 C   0  0  2  0  0  0  0  0  0  0  0  0
   -3.3424   -0.6049    0.8215 C   0  0  0  0  0  0  0  0  0  0  0  0
   -1.6301   -1.9630    0.0388 C   0  0  0  0  0  0  0  0  0  0  0  0
   -3.9823   -1.9689    0.6088 C   0  0  0  0  0  0  0  0  0  0  0  0
   -2.8561   -2.8622    0.0978 C   0  0  0  0  0  0  0  0  0  0  0  0
   -1.9343    1.7971    0.0531 C   0  0  0  0  0  0  0  0  0  0  0  0
   -0.1378    0.2722   -0.8638 C   0  0  0  0  0  0  0  0  0  0  0  0
   -0.9513    2.9560    0.2507 C   0  0  0  0  0  0  0  0  0  0  0  0
    1.2551    0.0110   -0.4094 C   0  0  0  0  0  0  0  0  0  0  0  0
   -1.6440    4.3021    0.1070 C   0  0  0  0  0  0  0  0  0  0  0  0
    1.6594    0.5082    0.8106 C   0  0  0  0  0  0  0  0  0  0  0  0
    2.0929   -0.7195   -1.2244 C   0  0  0  0  0  0  0  0  0  0  0  0
    2.9649    0.2633    1.2365 C   0  0  0  0  0  0  0  0  0  0  0  0
    3.3984   -0.9647   -0.7986 C   0  0  0  0  0  0  0  0  0  0  0  0
    3.8344   -0.4733    0.4319 C   0  0  0  0  0  0  0  0  0  0  0  0
   -0.8688    0.3103    1.1928 H   0  0  0  0  0  0  0  0  0  0  0  0
   -4.0672    0.1835    0.5964 H   0  0  0  0  0  0  0  0  0  0  0  0
   -3.0205   -0.5063    1.8662 H   0  0  0  0  0  0  0  0  0  0  0  0
   -1.0559   -2.0644    0.9690 H   0  0  0  0  0  0  0  0  0  0  0  0
   -0.9892   -2.2475   -0.8017 H   0  0  0  0  0  0  0  0  0  0  0  0
   -4.7799   -1.9135   -0.1414 H   0  0  0  0  0  0  0  0  0  0  0  0
   -4.4186   -2.3567    1.5349 H   0  0  0  0  0  0  0  0  0  0  0  0
   -2.6916   -3.7224    0.7547 H   0  0  0  0  0  0  0  0  0  0  0  0
   -3.1090   -3.2433   -0.8985 H   0  0  0  0  0  0  0  0  0  0  0  0
   -2.7244    1.9059    0.8050 H   0  0  0  0  0  0  0  0  0  0  0  0
   -2.4084    1.8987   -0.9323 H   0  0  0  0  0  0  0  0  0  0  0  0
   -0.1390    2.9079   -0.4821 H   0  0  0  0  0  0  0  0  0  0  0  0
   -0.5021    2.8959    1.2481 H   0  0  0  0  0  0  0  0  0  0  0  0
   -2.4431    4.4137    0.8468 H   0  0  0  0  0  0  0  0  0  0  0  0
   -0.9270    5.1153    0.2568 H   0  0  0  0  0  0  0  0  0  0  0  0
   -2.0808    4.4139   -0.8906 H   0  0  0  0  0  0  0  0  0  0  0  0
    1.0280    1.1087    1.4535 H   0  0  0  0  0  0  0  0  0  0  0  0
    1.7656   -1.1135   -2.1819 H   0  0  0  0  0  0  0  0  0  0  0  0
    3.3073    0.6511    2.1915 H   0  0  0  0  0  0  0  0  0  0  0  0
    4.0752   -1.5392   -1.4240 H   0  0  0  0  0  0  0  0  0  0  0  0
  1 18  1  0  0  0  0
  2 10  2  0  0  0  0
  3  4  1  0  0  0  0
  3  5  1  0  0  0  0
  3  6  1  0  0  0  0
  4  9  1  0  0  0  0
  4 10  1  0  0  0  0
  4 19  1  0  0  0  0
  5  7  1  0  0  0  0
  5 20  1  0  0  0  0
  5 21  1  0  0  0  0
  6  8  1  0  0  0  0
  6 22  1  0  0  0  0
  6 23  1  0  0  0  0
  7  8  1  0  0  0  0
  7 24  1  0  0  0  0
  7 25  1  0  0  0  0
  8 26  1  0  0  0  0
  8 27  1  0  0  0  0
  9 11  1  0  0  0  0
  9 28  1  0  0  0  0
  9 29  1  0  0  0  0
 10 12  1  0  0  0  0
 11 13  1  0  0  0  0
 11 30  1  0  0  0  0
 11 31  1  0  0  0  0
 12 14  2  0  0  0  0
 12 15  1  0  0  0  0
 13 32  1  0  0  0  0
 13 33  1  0  0  0  0
 13 34  1  0  0  0  0
 14 16  1  0  0  0  0
 14 35  1  0  0  0  0
 15 17  2  0  0  0  0
 15 36  1  0  0  0  0
 16 18  2  0  0  0  0
 16 37  1  0  0  0  0
 17 18  1  0  0  0  0
 17 38  1  0  0  0  0
M  END
> <PUBCHEM_COMPOUND_CID>
11322641

> <PUBCHEM_CONFORMER_RMSD>
0.8

> <PUBCHEM_CONFORMER_DIVERSEORDER>
1
16
20
12
24
14
13
6
21
10
22
15
17
23
4
18
5
19
8
3
7
11
9
2

> <PUBCHEM_MMFF94_PARTIAL_CHARGES>
17
1 -0.19
10 0.42
12 0.09
14 -0.15
15 -0.15
16 -0.15
17 -0.15
18 0.19
2 -0.57
3 -0.81
35 0.15
36 0.15
37 0.15
38 0.15
4 0.33
5 0.27
6 0.27

> <PUBCHEM_EFFECTIVE_ROTOR_COUNT>
6

> <PUBCHEM_PHARMACOPHORE_FEATURES>
5
1 13 hydrophobe
1 2 acceptor
1 3 cation
5 3 5 6 7 8 rings
6 12 14 15 16 17 18 rings

> <PUBCHEM_HEAVY_ATOM_COUNT>
18

> <PUBCHEM_ATOM_DEF_STEREO_COUNT>
0

> <PUBCHEM_ATOM_UDEF_STEREO_COUNT>
1

> <PUBCHEM_BOND_DEF_STEREO_COUNT>
0

> <PUBCHEM_BOND_UDEF_STEREO_COUNT>
0

> <PUBCHEM_ISOTOPIC_ATOM_COUNT>
0

> <PUBCHEM_COMPONENT_COUNT>
1

> <PUBCHEM_CACTVS_TAUTO_COUNT>
2

> <PUBCHEM_CONFORMER_ID>
00ACC51100000001

> <PUBCHEM_MMFF94_ENERGY>
35.4223

> <PUBCHEM_FEATURE_SELFOVERLAP>
25.371

> <PUBCHEM_SHAPE_FINGERPRINT>
10366900 7 18131344207179968286
11357001 24 18410290276960649169
11578080 2 17605818425670794717
11646440 116 18270975570565564673
12173636 292 18122060905720729477
12251169 10 17346041181009537255
12363563 72 18264494047380958411
12500047 106 18122627145988111092
12532896 13 17908701731044854037
12553582 1 18266757933290617391
12633257 1 17988936594879635699
12788726 201 18261692427085782305
12824470 246 17821997705858613074
13140716 1 18410298046804641497
13294875 104 16973913325988254688
13583140 156 17987213583461305546
136203 1 18338238163512364441
14178342 30 18263077722080757882
14289901 80 18335143077256185856
14787075 74 17753887517794857712
15653759 3 18273217486757167906
15885798 251 18338524131156469171
16752209 62 18113607976765199503
16945 1 18338806623618227909
17780758 139 18118662371868190754
17844478 74 18130786763427361440
17980427 26 17043155075058480941
18186145 218 13118278200594462119
18219364 16 16917058937241731528
19049666 15 17985836917066391078
19591789 44 16681475724390548556
200 152 15719386239995794278
20361792 2 17240761838864469999
20510252 161 18341897337945586097
20600515 1 18200611271146165201
20671657 53 17095521858993740599
21421861 104 17186730957440388923
21524375 3 17479730516479310181
21650355 55 18410856581505009801
23366157 5 17613725134324296421
23402539 116 18272362062927351037
23419403 2 17539934645236018637
23493267 7 18126561224573107208
23503958 8 18262231115286218898
23557571 272 18409167731766253524
23559900 14 18341905039170107686
3091708 16 8990007819653513465
5902787 121 18191871343036740523
6049 1 17917441869549192676
6442390 28 17836944299792803089
7364860 26 17763192740482351701
77188 2 18265895946355295425
81228 2 18340781351197906273
90316 7 18411709794017467697

> <PUBCHEM_SHAPE_MULTIPOLES>
352.31
7.09
3.5
1.19
5.11
4.24
-0.31
-4.8
2.25
-4.56
0.22
0.63
-0.07
0.48

> <PUBCHEM_SHAPE_SELFOVERLAP>
732.093

> <PUBCHEM_SHAPE_VOLUME>
203.4

> <PUBCHEM_COORDINATE_TYPE>
2
5
10

$$$$
