71721462
  -OEChem-12271619363D

 35 36  0     1  0  0  0  0  0999 V2000
    3.0590   -0.7047    1.1851 S   0  0  0  0  0  0  0  0  0  0  0  0
    0.3899    0.2637    1.9552 O   0  0  0  0  0  0  0  0  0  0  0  0
   -1.7861   -0.4092    0.2001 N   0  0  0  0  0  0  0  0  0  0  0  0
   -0.6992    0.4773   -0.1884 C   0  0  1  0  0  0  0  0  0  0  0  0
   -1.4461   -1.8205    0.0225 C   0  0  0  0  0  0  0  0  0  0  0  0
   -2.9892   -0.2040   -0.6060 C   0  0  0  0  0  0  0  0  0  0  0  0
   -3.8138   -1.4484   -0.3112 C   0  0  0  0  0  0  0  0  0  0  0  0
   -2.8000   -2.5097    0.1053 C   0  0  0  0  0  0  0  0  0  0  0  0
   -1.1470    1.9378   -0.0201 C   0  0  0  0  0  0  0  0  0  0  0  0
    0.4702    0.1454    0.7333 C   0  0  0  0  0  0  0  0  0  0  0  0
   -0.0258    2.9270   -0.3558 C   0  0  0  0  0  0  0  0  0  0  0  0
    1.7503   -0.3341    0.1447 C   0  0  0  0  0  0  0  0  0  0  0  0
   -0.4923    4.3667   -0.2059 C   0  0  0  0  0  0  0  0  0  0  0  0
    2.0688   -0.5391   -1.1797 C   0  0  0  0  0  0  0  0  0  0  0  0
    3.4047   -1.0069   -1.3425 C   0  0  0  0  0  0  0  0  0  0  0  0
    4.0564   -1.1414   -0.1364 C   0  0  0  0  0  0  0  0  0  0  0  0
   -0.4354    0.3212   -1.2378 H   0  0  0  0  0  0  0  0  0  0  0  0
   -3.5533    0.6891   -0.3205 H   0  0  0  0  0  0  0  0  0  0  0  0
   -0.9967   -2.0130   -0.9604 H   0  0  0  0  0  0  0  0  0  0  0  0
   -2.7629   -0.1559   -1.6790 H   0  0  0  0  0  0  0  0  0  0  0  0
   -0.7743   -2.2043    0.7969 H   0  0  0  0  0  0  0  0  0  0  0  0
   -4.3926   -1.7625   -1.1858 H   0  0  0  0  0  0  0  0  0  0  0  0
   -4.5172   -1.2660    0.5097 H   0  0  0  0  0  0  0  0  0  0  0  0
   -3.0083   -2.8383    1.1303 H   0  0  0  0  0  0  0  0  0  0  0  0
   -2.8436   -3.3893   -0.5449 H   0  0  0  0  0  0  0  0  0  0  0  0
   -1.4831    2.1181    1.0098 H   0  0  0  0  0  0  0  0  0  0  0  0
   -1.9907    2.1673   -0.6811 H   0  0  0  0  0  0  0  0  0  0  0  0
    0.3175    2.7644   -1.3841 H   0  0  0  0  0  0  0  0  0  0  0  0
    0.8351    2.7717    0.3035 H   0  0  0  0  0  0  0  0  0  0  0  0
   -0.8136    4.5701    0.8205 H   0  0  0  0  0  0  0  0  0  0  0  0
    0.3221    5.0561   -0.4499 H   0  0  0  0  0  0  0  0  0  0  0  0
   -1.3299    4.5802   -0.8775 H   0  0  0  0  0  0  0  0  0  0  0  0
    1.4004   -0.3721   -2.0131 H   0  0  0  0  0  0  0  0  0  0  0  0
    3.8644   -1.2334   -2.2957 H   0  0  0  0  0  0  0  0  0  0  0  0
    5.0706   -1.4752    0.0318 H   0  0  0  0  0  0  0  0  0  0  0  0
  1 12  1  0  0  0  0
  1 16  1  0  0  0  0
  2 10  2  0  0  0  0
  3  4  1  0  0  0  0
  3  5  1  0  0  0  0
  3  6  1  0  0  0  0
  4  9  1  0  0  0  0
  4 10  1  0  0  0  0
  4 17  1  0  0  0  0
  5  8  1  0  0  0  0
  5 19  1  0  0  0  0
  5 21  1  0  0  0  0
  6  7  1  0  0  0  0
  6 18  1  0  0  0  0
  6 20  1  0  0  0  0
  7  8  1  0  0  0  0
  7 22  1  0  0  0  0
  7 23  1  0  0  0  0
  8 24  1  0  0  0  0
  8 25  1  0  0  0  0
  9 11  1  0  0  0  0
  9 26  1  0  0  0  0
  9 27  1  0  0  0  0
 10 12  1  0  0  0  0
 11 13  1  0  0  0  0
 11 28  1  0  0  0  0
 11 29  1  0  0  0  0
 12 14  2  0  0  0  0
 13 30  1  0  0  0  0
 13 31  1  0  0  0  0
 13 32  1  0  0  0  0
 14 15  1  0  0  0  0
 14 33  1  0  0  0  0
 15 16  2  0  0  0  0
 15 34  1  0  0  0  0
 16 35  1  0  0  0  0
M  END
> <PUBCHEM_COMPOUND_CID>
71721462

> <PUBCHEM_CONFORMER_RMSD>
0.8

> <PUBCHEM_CONFORMER_DIVERSEORDER>
1
61
55
36
32
34
35
58
60
47
42
54
52
59
38
29
27
56
39
33
18
5
22
50
28
25
31
57
44
24
15
13
19
40
43
10
51
37
30
26
45
21
12
6
53
3
41
48
11
16
46
8
49
14
7
23
20
17
4
2
9

> <PUBCHEM_MMFF94_PARTIAL_CHARGES>
14
1 -0.08
10 0.59
12 -0.05
14 -0.15
15 -0.15
16 -0.11
2 -0.57
3 -0.81
33 0.15
34 0.15
35 0.15
4 0.33
5 0.27
6 0.27

> <PUBCHEM_EFFECTIVE_ROTOR_COUNT>
6

> <PUBCHEM_PHARMACOPHORE_FEATURES>
5
1 13 hydrophobe
1 2 acceptor
1 3 cation
5 1 12 14 15 16 rings
5 3 5 6 7 8 rings

> <PUBCHEM_HEAVY_ATOM_COUNT>
16

> <PUBCHEM_ATOM_DEF_STEREO_COUNT>
0

> <PUBCHEM_ATOM_UDEF_STEREO_COUNT>
1

> <PUBCHEM_BOND_DEF_STEREO_COUNT>
0

> <PUBCHEM_BOND_UDEF_STEREO_COUNT>
0

> <PUBCHEM_ISOTOPIC_ATOM_COUNT>
0

> <PUBCHEM_COMPONENT_COUNT>
1

> <PUBCHEM_CACTVS_TAUTO_COUNT>
2

> <PUBCHEM_CONFORMER_ID>
044661F600000001

> <PUBCHEM_MMFF94_ENERGY>
20.8938

> <PUBCHEM_FEATURE_SELFOVERLAP>
25.372

> <PUBCHEM_SHAPE_FINGERPRINT>
1 1 17473261453907160693
11578080 2 16881277594584556172
11582403 64 15898332685187349328
11833330 49 18335979783571404620
12173636 292 17905604406752466516
12500047 106 17907012877411504846
12553582 1 18408608067151830699
12707595 3 18262799704310335203
12788726 201 18261680263917709226
13583140 156 17770183152403242866
13681431 1 18196657512641210921
13955234 65 17763751283915586675
14004458 79 18338811000200822572
14648413 74 18049158066867284627
14817 1 17616479122619510688
15502708 8 18267586805875021620
15502722 9 17833554878826202261
15906896 17 17827096020827706448
16752209 62 18189036617555828471
16945 1 18338235938375991282
17041 50 18335971073852086031
17134986 127 17183065739386106700
1813 80 18341907315302281455
18186145 218 14056714638971349966
20339313 130 18268153226388650587
20361792 2 18340486763358999823
20600515 1 18200604686375627487
20645477 70 17833259102083922783
20671657 53 18339928215731089615
20693207 138 17630060265072062758
20711985 344 18338795589831478633
20871999 31 18335137587987437775
21061003 4 16917345931225278002
21285901 2 18058732390741409485
21452121 199 18055063522139712611
21524375 3 17322116624201930680
22112679 90 18266485181181488141
228727 97 17748829583527785674
23382010 3 16443910616439712747
23402539 116 18339633456320292966
23419403 2 17845348060052087129
23557571 272 18412535497243380000
23559900 14 18341607058987681202
23598294 1 18191022309427241769
25 1 12540964179833677742
2748010 2 18268691948410436593
305870 269 9438863654488316039
3071541 250 18265060308796057541
314173 41 18337676441809047099
5902787 121 18263638631439579339
6442390 28 17622174464213952497
7364860 26 17979354497283328341
7615 1 17749954328689753772
77492 1 17458624458812617506
81228 2 18341337686579795657
84936 31 17700126900611958352
88987 49 18121495757345172720

> <PUBCHEM_SHAPE_MULTIPOLES>
322.27
6.02
3.6
1.18
2.01
5.54
0.22
-5.28
-1.05
-2.55
-0.38
0.91
-0.17
0.2

> <PUBCHEM_SHAPE_SELFOVERLAP>
647.663

> <PUBCHEM_SHAPE_VOLUME>
191.1

> <PUBCHEM_COORDINATE_TYPE>
2
5
10

$$$$
