44418862
  -OEChem-12271619463D

 36 37  0     1  0  0  0  0  0999 V2000
    3.2664    0.9046    2.3898 Cl  0  0  0  0  0  0  0  0  0  0  0  0
    4.9031    1.3942   -0.3586 Cl  0  0  0  0  0  0  0  0  0  0  0  0
   -0.0529   -2.9342   -0.4480 O   0  0  0  0  0  0  0  0  0  0  0  0
   -1.6382   -2.3214    1.1061 O   0  0  0  0  0  0  0  0  0  0  0  0
   -1.3810    1.6664   -0.2336 N   0  0  0  0  0  0  0  0  0  0  0  0
   -1.7677    0.2966    0.1268 C   0  0  1  0  0  0  0  0  0  0  0  0
   -3.1897   -0.0138   -0.3606 C   0  0  0  0  0  0  0  0  0  0  0  0
   -0.7666   -0.6820   -0.4843 C   0  0  1  0  0  0  0  0  0  0  0  0
   -4.1926    1.0041    0.1755 C   0  0  0  0  0  0  0  0  0  0  0  0
   -3.7308    2.4243   -0.1329 C   0  0  0  0  0  0  0  0  0  0  0  0
   -2.2968    2.6540    0.3380 C   0  0  0  0  0  0  0  0  0  0  0  0
    0.6609   -0.1580   -0.4355 C   0  0  0  0  0  0  0  0  0  0  0  0
   -0.8896   -2.0508    0.1758 C   0  0  0  0  0  0  0  0  0  0  0  0
    1.2638    0.1119    0.7930 C   0  0  0  0  0  0  0  0  0  0  0  0
    1.3668    0.0522   -1.6201 C   0  0  0  0  0  0  0  0  0  0  0  0
    2.5728    0.5917    0.8371 C   0  0  0  0  0  0  0  0  0  0  0  0
    2.6758    0.5322   -1.5759 C   0  0  0  0  0  0  0  0  0  0  0  0
    3.2788    0.8019   -0.3473 C   0  0  0  0  0  0  0  0  0  0  0  0
   -0.0823   -4.2739    0.0548 C   0  0  0  0  0  0  0  0  0  0  0  0
   -1.7423    0.2176    1.2226 H   0  0  0  0  0  0  0  0  0  0  0  0
   -3.5063   -1.0150   -0.0496 H   0  0  0  0  0  0  0  0  0  0  0  0
   -3.2256   -0.0002   -1.4582 H   0  0  0  0  0  0  0  0  0  0  0  0
   -1.0393   -0.8370   -1.5389 H   0  0  0  0  0  0  0  0  0  0  0  0
   -4.2955    0.8796    1.2604 H   0  0  0  0  0  0  0  0  0  0  0  0
   -5.1802    0.8266   -0.2643 H   0  0  0  0  0  0  0  0  0  0  0  0
   -3.7971    2.6034   -1.2135 H   0  0  0  0  0  0  0  0  0  0  0  0
   -4.4000    3.1441    0.3518 H   0  0  0  0  0  0  0  0  0  0  0  0
   -1.3858    1.7601   -1.2499 H   0  0  0  0  0  0  0  0  0  0  0  0
   -1.9700    3.6557    0.0386 H   0  0  0  0  0  0  0  0  0  0  0  0
   -2.2439    2.6212    1.4329 H   0  0  0  0  0  0  0  0  0  0  0  0
    0.7146   -0.0561    1.7167 H   0  0  0  0  0  0  0  0  0  0  0  0
    0.9109   -0.1531   -2.5847 H   0  0  0  0  0  0  0  0  0  0  0  0
    3.2113    0.6903   -2.5088 H   0  0  0  0  0  0  0  0  0  0  0  0
    0.6250   -4.8707   -0.5272 H   0  0  0  0  0  0  0  0  0  0  0  0
   -1.0828   -4.7008   -0.0633 H   0  0  0  0  0  0  0  0  0  0  0  0
    0.2247   -4.2906    1.1048 H   0  0  0  0  0  0  0  0  0  0  0  0
  1 16  1  0  0  0  0
  2 18  1  0  0  0  0
  3 13  1  0  0  0  0
  3 19  1  0  0  0  0
  4 13  2  0  0  0  0
  5  6  1  0  0  0  0
  5 11  1  0  0  0  0
  5 28  1  0  0  0  0
  6  7  1  0  0  0  0
  6  8  1  0  0  0  0
  6 20  1  0  0  0  0
  7  9  1  0  0  0  0
  7 21  1  0  0  0  0
  7 22  1  0  0  0  0
  8 12  1  0  0  0  0
  8 13  1  0  0  0  0
  8 23  1  0  0  0  0
  9 10  1  0  0  0  0
  9 24  1  0  0  0  0
  9 25  1  0  0  0  0
 10 11  1  0  0  0  0
 10 26  1  0  0  0  0
 10 27  1  0  0  0  0
 11 29  1  0  0  0  0
 11 30  1  0  0  0  0
 12 14  2  0  0  0  0
 12 15  1  0  0  0  0
 14 16  1  0  0  0  0
 14 31  1  0  0  0  0
 15 17  2  0  0  0  0
 15 32  1  0  0  0  0
 16 18  2  0  0  0  0
 17 18  1  0  0  0  0
 17 33  1  0  0  0  0
 19 34  1  0  0  0  0
 19 35  1  0  0  0  0
 19 36  1  0  0  0  0
M  END
> <PUBCHEM_COMPOUND_CID>
44418862

> <PUBCHEM_CONFORMER_RMSD>
0.8

> <PUBCHEM_CONFORMER_DIVERSEORDER>
1
77
87
55
7
51
22
71
57
54
62
85
88
83
81
64
73
53
42
82
45
74
72
76
9
61
89
66
69
86
43
19
63
38
41
56
67
44
13
40
27
60
17
24
75
35
36
79
39
65
52
8
58
14
68
12
33
30
15
46
23
84
78
21
29
34
37
90
32
11
80
25
31
16
10
20
28
5
18
26
50
70
4
49
59
48
3
2
6
47

> <PUBCHEM_MMFF94_PARTIAL_CHARGES>
20
1 -0.18
11 0.27
12 -0.14
13 0.66
14 -0.15
15 -0.15
16 0.18
17 -0.15
18 0.18
19 0.28
2 -0.18
28 0.36
3 -0.43
31 0.15
32 0.15
33 0.15
4 -0.57
5 -0.9
6 0.27
8 0.2

> <PUBCHEM_EFFECTIVE_ROTOR_COUNT>
5.2

> <PUBCHEM_PHARMACOPHORE_FEATURES>
5
1 4 acceptor
1 5 cation
1 5 donor
6 12 14 15 16 17 18 rings
6 5 6 7 9 10 11 rings

> <PUBCHEM_HEAVY_ATOM_COUNT>
19

> <PUBCHEM_ATOM_DEF_STEREO_COUNT>
0

> <PUBCHEM_ATOM_UDEF_STEREO_COUNT>
2

> <PUBCHEM_BOND_DEF_STEREO_COUNT>
0

> <PUBCHEM_BOND_UDEF_STEREO_COUNT>
0

> <PUBCHEM_ISOTOPIC_ATOM_COUNT>
0

> <PUBCHEM_COMPONENT_COUNT>
1

> <PUBCHEM_CACTVS_TAUTO_COUNT>
1

> <PUBCHEM_CONFORMER_ID>
02A5C72E00000001

> <PUBCHEM_MMFF94_ENERGY>
34.0123

> <PUBCHEM_FEATURE_SELFOVERLAP>
25.371

> <PUBCHEM_SHAPE_FINGERPRINT>
10498660 4 18340207375984899549
11582403 64 16913929765883090466
11640471 11 17677059052409366460
11725454 13 17058334146928441642
12173636 292 18410011065320947036
12236239 1 17603864541556736348
12500047 106 18340768238768038694
12553582 1 17688029030138457026
12716301 132 18340770450370351682
12788726 201 17682135596236734954
13294875 104 17984695615464639194
13538477 17 18113895022024232336
13583140 156 17845084251034909514
13764800 53 18336557091705627897
13878862 14 17544187183046921653
13965767 371 17751081310222383212
15906896 17 17970075632520187547
16752209 62 18263924517426960607
16945 1 18339356495385683206
1741750 31 18408891745462328548
17980427 23 16763355784565556645
18186145 218 17846221025050203449
20028762 73 17912939563225014903
20510252 161 18341342179289536977
20600515 1 17471253685465762623
20645476 183 18333733545623868444
20671657 1 17835246645127658645
212916 134 18341316843261744256
21524375 3 18200593592527654621
22112679 90 17677606648060043124
23366157 5 17900265195705095523
23402539 116 18341608252281584917
23493267 7 18342459292025698880
23526113 38 17702962348163860270
23557571 272 18055642960609720436
23559900 14 18193838141457320476
23598288 3 17825967080147529182
23598294 1 18190458448993449202
25 1 17703516493107426280
305870 269 18265614286404379567
3091708 16 9123163062786003787
350125 39 17977392629400574381
43471831 8 18337388245456035299
458136 41 18195543510120533561
474229 33 18336270119650800147
633830 44 18200877253743407309
6442390 28 18341069457635660123
7364860 26 17908701731271343479
77492 1 17531241820175028732
7808743 9 18337956808926911932
81228 2 17982736573517872355
84936 182 18055355734381702129
9981440 41 18408887308818978691

> <PUBCHEM_SHAPE_MULTIPOLES>
378.03
7.19
3.51
1.41
1.81
4.42
-0.4
-6.39
-0.35
-2.47
-0.38
1.68
-0.26
0.27

> <PUBCHEM_SHAPE_SELFOVERLAP>
768.428

> <PUBCHEM_SHAPE_VOLUME>
221.3

> <PUBCHEM_COORDINATE_TYPE>
2
5
10

$$$$
