91696115
  -OEChem-12271618463D

 34 34  0     1  0  0  0  0  0999 V2000
    1.6996    2.0319   -0.4827 O   0  0  0  0  0  0  0  0  0  0  0  0
    2.9956   -0.5519   -0.0653 N   0  0  0  0  0  0  0  0  0  0  0  0
    1.8749   -0.3221   -0.9792 C   0  0  1  0  0  0  0  0  0  0  0  0
    1.1074    0.9319   -0.5064 C   0  0  0  0  0  0  0  0  0  0  0  0
   -0.2794    0.8387   -0.0781 C   0  0  0  0  0  0  0  0  0  0  0  0
    2.4029   -0.1183   -2.3932 C   0  0  0  0  0  0  0  0  0  0  0  0
   -2.4462   -0.2209   -0.2189 C   0  0  0  0  0  0  0  0  0  0  0  0
    2.5399   -1.2022    1.1527 C   0  0  0  0  0  0  0  0  0  0  0  0
   -1.1160   -0.1320   -0.6293 C   0  0  0  0  0  0  0  0  0  0  0  0
   -3.3413   -1.2578   -0.8088 C   0  0  0  0  0  0  0  0  0  0  0  0
   -0.7731    1.7206    0.8833 C   0  0  0  0  0  0  0  0  0  0  0  0
   -2.9399    0.6610    0.7425 C   0  0  0  0  0  0  0  0  0  0  0  0
   -2.1034    1.6319    1.2934 C   0  0  0  0  0  0  0  0  0  0  0  0
    3.6944   -1.4461    2.1097 C   0  0  0  0  0  0  0  0  0  0  0  0
   -3.3153   -2.5644   -0.0197 C   0  0  0  0  0  0  0  0  0  0  0  0
    1.2375   -1.2099   -0.9982 H   0  0  0  0  0  0  0  0  0  0  0  0
    3.6913   -1.1469   -0.5154 H   0  0  0  0  0  0  0  0  0  0  0  0
    3.0987    0.7269   -2.4504 H   0  0  0  0  0  0  0  0  0  0  0  0
    2.9240   -1.0114   -2.7549 H   0  0  0  0  0  0  0  0  0  0  0  0
    1.5786    0.0928   -3.0835 H   0  0  0  0  0  0  0  0  0  0  0  0
    1.7978   -0.5848    1.6708 H   0  0  0  0  0  0  0  0  0  0  0  0
    2.0703   -2.1664    0.9233 H   0  0  0  0  0  0  0  0  0  0  0  0
   -0.7671   -0.8084   -1.4040 H   0  0  0  0  0  0  0  0  0  0  0  0
   -4.3709   -0.8812   -0.8542 H   0  0  0  0  0  0  0  0  0  0  0  0
   -3.0533   -1.4550   -1.8490 H   0  0  0  0  0  0  0  0  0  0  0  0
   -0.1359    2.4804    1.3282 H   0  0  0  0  0  0  0  0  0  0  0  0
   -3.9738    0.6010    1.0721 H   0  0  0  0  0  0  0  0  0  0  0  0
   -2.4876    2.3175    2.0430 H   0  0  0  0  0  0  0  0  0  0  0  0
    4.4515   -2.0971    1.6598 H   0  0  0  0  0  0  0  0  0  0  0  0
    4.1768   -0.5050    2.3946 H   0  0  0  0  0  0  0  0  0  0  0  0
    3.3334   -1.9302    3.0229 H   0  0  0  0  0  0  0  0  0  0  0  0
   -2.3067   -2.9907    0.0068 H   0  0  0  0  0  0  0  0  0  0  0  0
   -3.9830   -3.2982   -0.4820 H   0  0  0  0  0  0  0  0  0  0  0  0
   -3.6428   -2.4094    1.0139 H   0  0  0  0  0  0  0  0  0  0  0  0
  1  4  2  0  0  0  0
  2  3  1  0  0  0  0
  2  8  1  0  0  0  0
  2 17  1  0  0  0  0
  3  4  1  0  0  0  0
  3  6  1  0  0  0  0
  3 16  1  0  0  0  0
  4  5  1  0  0  0  0
  5  9  1  0  0  0  0
  5 11  2  0  0  0  0
  6 18  1  0  0  0  0
  6 19  1  0  0  0  0
  6 20  1  0  0  0  0
  7  9  2  0  0  0  0
  7 10  1  0  0  0  0
  7 12  1  0  0  0  0
  8 14  1  0  0  0  0
  8 21  1  0  0  0  0
  8 22  1  0  0  0  0
  9 23  1  0  0  0  0
 10 15  1  0  0  0  0
 10 24  1  0  0  0  0
 10 25  1  0  0  0  0
 11 13  1  0  0  0  0
 11 26  1  0  0  0  0
 12 13  2  0  0  0  0
 12 27  1  0  0  0  0
 13 28  1  0  0  0  0
 14 29  1  0  0  0  0
 14 30  1  0  0  0  0
 14 31  1  0  0  0  0
 15 32  1  0  0  0  0
 15 33  1  0  0  0  0
 15 34  1  0  0  0  0
M  END
> <PUBCHEM_COMPOUND_CID>
91696115

> <PUBCHEM_CONFORMER_RMSD>
0.6

> <PUBCHEM_CONFORMER_DIVERSEORDER>
1
137
84
178
244
98
20
87
91
31
279
34
186
47
108
172
233
271
213
106
46
131
93
267
2
229
141
228
82
205
295
230
94
49
336
328
135
176
235
308
165
174
297
142
155
208
264
109
88
240
287
159
57
342
147
18
188
302
334
276
227
72
10
203
143
196
19
250
206
281
36
285
17
102
245
43
151
347
78
216
161
221
234
97
291
277
272
248
134
14
218
101
253
309
33
260
64
120
223
75
210
158
292
298
166
169
262
239
225
32
199
83
207
340
118
214
204
179
303
332
122
185
74
76
299
301
128
217
105
30
266
322
119
219
312
132
232
190
56
330
220
175
318
327
226
38
71
249
306
339
149
66
335
153
59
192
50
191
242
181
81
138
345
37
305
55
42
11
154
319
274
300
48
85
344
68
311
338
187
15
307
314
167
170
148
99
238
152
22
329
313
268
45
325
224
349
343
270
247
201
348
215
284
24
104
294
40
222
182
65
317
25
326
29
113
316
23
200
231
275
280
146
96
7
265
16
60
180
237
211
296
150
251
255
136
67
212
39
304
9
35
139
3
257
140
70
130
171
28
246
346
194
310
77
258
189
144
321
115
278
173
315
160
61
324
252
21
341
263
320
283
86
12
198
6
103
256
133
126
111
123
323
259
184
261
53
157
8
183
163
333
110
5
290
44
273
79
241
89
156
124
13
112
127
26
58
80
100
52
117
269
63
337
54
162
209
254
51
4
177
286
41
116
282
114
331
243
202
107
69
95
168
27
193
289
145
90
125
288
92
129
195
236
293
164
121
62
197
73

> <PUBCHEM_MMFF94_PARTIAL_CHARGES>
17
1 -0.57
10 0.14
11 -0.15
12 -0.15
13 -0.15
17 0.36
2 -0.9
23 0.15
26 0.15
27 0.15
28 0.15
3 0.33
4 0.42
5 0.09
7 -0.14
8 0.27
9 -0.15

> <PUBCHEM_EFFECTIVE_ROTOR_COUNT>
5

> <PUBCHEM_PHARMACOPHORE_FEATURES>
5
1 1 acceptor
1 15 hydrophobe
1 2 cation
1 2 donor
6 5 7 9 11 12 13 rings

> <PUBCHEM_HEAVY_ATOM_COUNT>
15

> <PUBCHEM_ATOM_DEF_STEREO_COUNT>
0

> <PUBCHEM_ATOM_UDEF_STEREO_COUNT>
1

> <PUBCHEM_BOND_DEF_STEREO_COUNT>
0

> <PUBCHEM_BOND_UDEF_STEREO_COUNT>
0

> <PUBCHEM_ISOTOPIC_ATOM_COUNT>
0

> <PUBCHEM_COMPONENT_COUNT>
1

> <PUBCHEM_CACTVS_TAUTO_COUNT>
2

> <PUBCHEM_CONFORMER_ID>
05772BF300000001

> <PUBCHEM_MMFF94_ENERGY>
26.4039

> <PUBCHEM_FEATURE_SELFOVERLAP>
25.371

> <PUBCHEM_SHAPE_FINGERPRINT>
10366900 7 16701739333059062604
11137873 295 16009596746009514074
11578080 2 18115846590681802548
11680611 10 18411426102368114205
11769659 78 18334569183356978327
12824470 246 18261105318316244219
12932764 1 18188224142629260629
13083527 12 16698890683431593549
13294875 104 15540672371494176264
14178342 30 18200877253648331339
15295992 7 15481006518403765643
15375462 189 18187091637151984682
15852999 172 16879629521286107848
16945 1 18199764543818176357
19049666 15 16485298205593856288
19786989 88 15865509183453547348
20361792 2 17604432877731313268
20645477 70 16153714219182161514
20715346 28 16845577469747760620
212916 134 17769090147097162265
21452121 199 18056466490587078977
21452121 71 18260540130721473266
21501925 9 18130781295828440277
21524375 3 17908709780135742476
21650355 55 18199734882499613601
22112679 90 18264217923970194252
23114952 82 13985535546329142790
232386 152 18411418375932990734
23419403 2 17696423616738051689
23532345 11 18129654188898949338
23557571 272 17632860802222414281
23559900 14 17631461076897323820
2748010 2 16545800375106443293
5161694 15 14273454738977857058
5902787 121 18341893043125865939
6049 1 16486705683582998524
81228 2 17774169998323291337

> <PUBCHEM_SHAPE_MULTIPOLES>
297.84
6.31
2.17
1.78
0.62
0.3
0.11
3.73
-1.44
-1.4
-0.56
2.12
0.34
-1.6

> <PUBCHEM_SHAPE_SELFOVERLAP>
598.658

> <PUBCHEM_SHAPE_VOLUME>
176.5

> <PUBCHEM_COORDINATE_TYPE>
2
5
10

$$$$
