58216164
  -OEChem-12271618343D

 26 26  0     1  0  0  0  0  0999 V2000
    3.3020   -1.6048    0.2397 F   0  0  0  0  0  0  0  0  0  0  0  0
   -3.5093   -0.4135    0.0897 N   0  0  0  0  0  0  0  0  0  0  0  0
   -2.1250   -0.3159   -0.3825 C   0  0  1  0  0  0  0  0  0  0  0  0
   -1.2212    0.1612    0.7691 C   0  0  0  0  0  0  0  0  0  0  0  0
    0.2253    0.3326    0.3713 C   0  0  0  0  0  0  0  0  0  0  0  0
   -1.7058   -1.6806   -0.9291 C   0  0  0  0  0  0  0  0  0  0  0  0
    1.1130   -0.7366    0.4909 C   0  0  0  0  0  0  0  0  0  0  0  0
    0.6739    1.5606   -0.1154 C   0  0  0  0  0  0  0  0  0  0  0  0
   -4.1110    0.9058    0.1874 C   0  0  0  0  0  0  0  0  0  0  0  0
    2.4495   -0.5780    0.1239 C   0  0  0  0  0  0  0  0  0  0  0  0
    2.0104    1.7192   -0.4821 C   0  0  0  0  0  0  0  0  0  0  0  0
    2.8981    0.6499   -0.3628 C   0  0  0  0  0  0  0  0  0  0  0  0
   -2.0628    0.3906   -1.2214 H   0  0  0  0  0  0  0  0  0  0  0  0
   -1.2775   -0.5440    1.6103 H   0  0  0  0  0  0  0  0  0  0  0  0
   -1.5653    1.1197    1.1755 H   0  0  0  0  0  0  0  0  0  0  0  0
   -1.6561   -2.4353   -0.1362 H   0  0  0  0  0  0  0  0  0  0  0  0
   -0.7303   -1.6333   -1.4228 H   0  0  0  0  0  0  0  0  0  0  0  0
   -2.4156   -2.0367   -1.6853 H   0  0  0  0  0  0  0  0  0  0  0  0
   -4.0565   -0.9649   -0.5715 H   0  0  0  0  0  0  0  0  0  0  0  0
    0.7791   -1.6975    0.8728 H   0  0  0  0  0  0  0  0  0  0  0  0
   -0.0087    2.4003   -0.2154 H   0  0  0  0  0  0  0  0  0  0  0  0
   -3.6592    1.5189    0.9717 H   0  0  0  0  0  0  0  0  0  0  0  0
   -5.1679    0.7945    0.4521 H   0  0  0  0  0  0  0  0  0  0  0  0
   -4.0706    1.4475   -0.7636 H   0  0  0  0  0  0  0  0  0  0  0  0
    2.3597    2.6751   -0.8614 H   0  0  0  0  0  0  0  0  0  0  0  0
    3.9386    0.7731   -0.6484 H   0  0  0  0  0  0  0  0  0  0  0  0
  1 10  1  0  0  0  0
  2  3  1  0  0  0  0
  2  9  1  0  0  0  0
  2 19  1  0  0  0  0
  3  4  1  0  0  0  0
  3  6  1  0  0  0  0
  3 13  1  0  0  0  0
  4  5  1  0  0  0  0
  4 14  1  0  0  0  0
  4 15  1  0  0  0  0
  5  7  2  0  0  0  0
  5  8  1  0  0  0  0
  6 16  1  0  0  0  0
  6 17  1  0  0  0  0
  6 18  1  0  0  0  0
  7 10  1  0  0  0  0
  7 20  1  0  0  0  0
  8 11  2  0  0  0  0
  8 21  1  0  0  0  0
  9 22  1  0  0  0  0
  9 23  1  0  0  0  0
  9 24  1  0  0  0  0
 10 12  2  0  0  0  0
 11 12  1  0  0  0  0
 11 25  1  0  0  0  0
 12 26  1  0  0  0  0
M  END
> <PUBCHEM_COMPOUND_CID>
58216164

> <PUBCHEM_CONFORMER_RMSD>
0.6

> <PUBCHEM_CONFORMER_DIVERSEORDER>
1
4
28
12
22
25
18
11
8
7
3
27
5
29
9
21
10
26
24
16
6
19
23
14
2
20
17
15
13

> <PUBCHEM_MMFF94_PARTIAL_CHARGES>
16
1 -0.19
10 0.19
11 -0.15
12 -0.15
19 0.36
2 -0.9
20 0.15
21 0.15
25 0.15
26 0.15
3 0.27
4 0.14
5 -0.14
7 -0.15
8 -0.15
9 0.27

> <PUBCHEM_EFFECTIVE_ROTOR_COUNT>
3

> <PUBCHEM_PHARMACOPHORE_FEATURES>
3
1 2 cation
1 2 donor
6 5 7 8 10 11 12 rings

> <PUBCHEM_HEAVY_ATOM_COUNT>
12

> <PUBCHEM_ATOM_DEF_STEREO_COUNT>
0

> <PUBCHEM_ATOM_UDEF_STEREO_COUNT>
1

> <PUBCHEM_BOND_DEF_STEREO_COUNT>
0

> <PUBCHEM_BOND_UDEF_STEREO_COUNT>
0

> <PUBCHEM_ISOTOPIC_ATOM_COUNT>
0

> <PUBCHEM_COMPONENT_COUNT>
1

> <PUBCHEM_CACTVS_TAUTO_COUNT>
1

> <PUBCHEM_CONFORMER_ID>
03784EE400000001

> <PUBCHEM_MMFF94_ENERGY>
19.583

> <PUBCHEM_FEATURE_SELFOVERLAP>
15.223

> <PUBCHEM_SHAPE_FINGERPRINT>
10130415 120 18411133615121565673
10922523 26 18335979796540423517
11031198 65 17968669322735321212
11471102 20 18261107469820266965
12932764 1 17987803058700008881
13764800 53 15141500473594164663
14128692 85 18343299305713083826
14144814 61 18342740728036421945
14325111 11 18409450327634333441
14993402 34 18272094885131923069
15442244 35 18338518521512650449
15775835 57 18337677523945081509
16945 1 18263088867420618720
17844478 74 17240201028147465029
18186145 218 17603299349878150515
18511873 20 18342173345645154475
18619055 16 18342737442207092305
19422 9 18410013264755762755
20645476 183 18270969066977438399
20645477 70 18408603643367151255
20871998 22 18195809570681535014
22802520 49 16806986772071030926
23402539 116 17560792187815810921
23402655 69 18407758136258170253
23463225 33 18341332201816972079
23552423 10 18195805404051165277
23598291 2 18410849988530010543
25 1 18040716973871100907
2748010 2 15097346749397226436
3248919 1 18043238231569790923
528886 8 18334856164260197088
63268167 104 18409452517767130088
74978 22 18059008505525223745
9939556 21 18340766047986519239

> <PUBCHEM_SHAPE_MULTIPOLES>
234.7
6.07
1.68
0.82
3.63
0.04
-0.03
-0.1
-0.12
-0.59
-0.27
0.1
0.08
-0.67

> <PUBCHEM_SHAPE_SELFOVERLAP>
472.509

> <PUBCHEM_SHAPE_VOLUME>
139.2

> <PUBCHEM_COORDINATE_TYPE>
2
5
10

$$$$
