45266826
  -OEChem-12271619123D

 28 28  0     1  0  0  0  0  0999 V2000
    1.6085    1.7661   -0.5392 O   0  0  0  0  0  0  0  0  0  0  0  0
    3.1309   -0.2940    0.8640 N   0  0  0  0  0  0  0  0  0  0  0  0
    2.2568   -0.5434   -0.2840 C   0  0  1  0  0  0  0  0  0  0  0  0
    1.2145    0.5937   -0.3613 C   0  0  0  0  0  0  0  0  0  0  0  0
   -0.2050    0.3138   -0.2140 C   0  0  0  0  0  0  0  0  0  0  0  0
    3.0888   -0.5869   -1.5592 C   0  0  0  0  0  0  0  0  0  0  0  0
   -0.7188   -0.9193   -0.6155 C   0  0  0  0  0  0  0  0  0  0  0  0
   -1.0530    1.2792    0.3287 C   0  0  0  0  0  0  0  0  0  0  0  0
   -2.9283   -0.2213    0.0678 C   0  0  0  0  0  0  0  0  0  0  0  0
   -2.0803   -1.1869   -0.4748 C   0  0  0  0  0  0  0  0  0  0  0  0
   -2.4147    1.0118    0.4695 C   0  0  0  0  0  0  0  0  0  0  0  0
    2.4850   -0.7051    2.0999 C   0  0  0  0  0  0  0  0  0  0  0  0
   -4.3843   -0.5079    0.2181 C   0  0  0  0  0  0  0  0  0  0  0  0
    1.7856   -1.5234   -0.1720 H   0  0  0  0  0  0  0  0  0  0  0  0
    2.4441   -0.7347   -2.4327 H   0  0  0  0  0  0  0  0  0  0  0  0
    3.8129   -1.4086   -1.5329 H   0  0  0  0  0  0  0  0  0  0  0  0
    3.6409    0.3467   -1.7175 H   0  0  0  0  0  0  0  0  0  0  0  0
    3.9931   -0.8289    0.7588 H   0  0  0  0  0  0  0  0  0  0  0  0
   -0.0989   -1.6830   -1.0746 H   0  0  0  0  0  0  0  0  0  0  0  0
   -0.6709    2.2439    0.6524 H   0  0  0  0  0  0  0  0  0  0  0  0
   -2.4701   -2.1489   -0.7968 H   0  0  0  0  0  0  0  0  0  0  0  0
   -3.0648    1.7710    0.8962 H   0  0  0  0  0  0  0  0  0  0  0  0
    2.2423   -1.7730    2.0974 H   0  0  0  0  0  0  0  0  0  0  0  0
    3.1654   -0.5242    2.9384 H   0  0  0  0  0  0  0  0  0  0  0  0
    1.5748   -0.1306    2.2977 H   0  0  0  0  0  0  0  0  0  0  0  0
   -4.5779   -0.9680    1.1921 H   0  0  0  0  0  0  0  0  0  0  0  0
   -4.9781    0.4091    0.1390 H   0  0  0  0  0  0  0  0  0  0  0  0
   -4.7364   -1.1858   -0.5670 H   0  0  0  0  0  0  0  0  0  0  0  0
  1  4  2  0  0  0  0
  2  3  1  0  0  0  0
  2 12  1  0  0  0  0
  2 18  1  0  0  0  0
  3  4  1  0  0  0  0
  3  6  1  0  0  0  0
  3 14  1  0  0  0  0
  4  5  1  0  0  0  0
  5  7  2  0  0  0  0
  5  8  1  0  0  0  0
  6 15  1  0  0  0  0
  6 16  1  0  0  0  0
  6 17  1  0  0  0  0
  7 10  1  0  0  0  0
  7 19  1  0  0  0  0
  8 11  2  0  0  0  0
  8 20  1  0  0  0  0
  9 10  2  0  0  0  0
  9 11  1  0  0  0  0
  9 13  1  0  0  0  0
 10 21  1  0  0  0  0
 11 22  1  0  0  0  0
 12 23  1  0  0  0  0
 12 24  1  0  0  0  0
 12 25  1  0  0  0  0
 13 26  1  0  0  0  0
 13 27  1  0  0  0  0
 13 28  1  0  0  0  0
M  END
> <PUBCHEM_COMPOUND_CID>
45266826

> <PUBCHEM_CONFORMER_RMSD>
0.6

> <PUBCHEM_CONFORMER_DIVERSEORDER>
1
12
11
14
8
16
21
4
7
15
3
5
9
10
18
17
19
20
13
6
2

> <PUBCHEM_MMFF94_PARTIAL_CHARGES>
17
1 -0.57
10 -0.15
11 -0.15
12 0.27
13 0.14
18 0.36
19 0.15
2 -0.9
20 0.15
21 0.15
22 0.15
3 0.33
4 0.42
5 0.09
7 -0.15
8 -0.15
9 -0.14

> <PUBCHEM_EFFECTIVE_ROTOR_COUNT>
3

> <PUBCHEM_PHARMACOPHORE_FEATURES>
4
1 1 acceptor
1 2 cation
1 2 donor
6 5 7 8 9 10 11 rings

> <PUBCHEM_HEAVY_ATOM_COUNT>
13

> <PUBCHEM_ATOM_DEF_STEREO_COUNT>
0

> <PUBCHEM_ATOM_UDEF_STEREO_COUNT>
1

> <PUBCHEM_BOND_DEF_STEREO_COUNT>
0

> <PUBCHEM_BOND_UDEF_STEREO_COUNT>
0

> <PUBCHEM_ISOTOPIC_ATOM_COUNT>
0

> <PUBCHEM_COMPONENT_COUNT>
1

> <PUBCHEM_CACTVS_TAUTO_COUNT>
7

> <PUBCHEM_CONFORMER_ID>
02B2B78A00000001

> <PUBCHEM_MMFF94_ENERGY>
31.2548

> <PUBCHEM_FEATURE_SELFOVERLAP>
20.297

> <PUBCHEM_SHAPE_FINGERPRINT>
10130415 120 18411136969918337081
10857977 72 18131627889717102145
11132069 177 18060698399299930535
11543360 7 15936698185044268391
11769659 78 17822286937836540323
12032990 46 18272101517136532055
12932764 1 17894912944730637637
13675066 3 17847065480477460619
13760787 19 17458635527238868355
14144814 61 18408606941785548237
15219456 202 16988559074462776794
16945 1 18411419484134676135
17804303 29 17702957907067534006
18186145 218 18186802517360301511
19026448 5 17022906731383139853
19049666 15 17130431172923885560
200 152 16660360368246449274
20361792 2 17894622639322193926
20510252 161 17846222120382902361
20528008 55 17060613408710275743
20559304 39 18410858758794972444
20645464 45 17275094020621844418
20645476 183 17604724381388588743
20645477 70 18040996267342340463
20715346 28 17703504402811242524
21501925 9 18341607140037860089
2255824 54 17895482534803842268
23402539 116 17632291255837659773
23463225 33 18412832382398900135
23552423 10 18117561940478966469
23559900 14 17917997148543284828
3248919 1 18201435908697409581
5084963 1 17917442990108304421
57812782 119 17203609246472274463
69090 78 16845285043105579375
7364860 26 18059018409767729412
8030462 33 17530973470544736036

> <PUBCHEM_SHAPE_MULTIPOLES>
256.68
6.3
1.35
1.29
2.38
0.09
0.52
0.9
1.32
-0.05
-0.2
-1.39
-0.33
0.68

> <PUBCHEM_SHAPE_SELFOVERLAP>
522.283

> <PUBCHEM_SHAPE_VOLUME>
151.3

> <PUBCHEM_COORDINATE_TYPE>
2
5
10

$$$$
