82100418
  -OEChem-12271618393D

 25 25  0     1  0  0  0  0  0999 V2000
   -4.5936    0.5328   -0.2168 Cl  0  0  0  0  0  0  0  0  0  0  0  0
    1.6363   -1.7745    0.4936 O   0  0  0  0  0  0  0  0  0  0  0  0
    3.1437    0.3276   -0.8627 N   0  0  0  0  0  0  0  0  0  0  0  0
    2.2718    0.5439    0.2936 C   0  0  1  0  0  0  0  0  0  0  0  0
    1.2356   -0.6000    0.3458 C   0  0  0  0  0  0  0  0  0  0  0  0
   -0.1857   -0.3242    0.2096 C   0  0  0  0  0  0  0  0  0  0  0  0
    3.1074    0.5604    1.5670 C   0  0  0  0  0  0  0  0  0  0  0  0
   -1.0303   -1.2794   -0.3561 C   0  0  0  0  0  0  0  0  0  0  0  0
   -0.7044    0.8960    0.6431 C   0  0  0  0  0  0  0  0  0  0  0  0
    2.4920    0.7658   -2.0862 C   0  0  0  0  0  0  0  0  0  0  0  0
   -2.3934   -1.0146   -0.4879 C   0  0  0  0  0  0  0  0  0  0  0  0
   -2.0674    1.1609    0.5113 C   0  0  0  0  0  0  0  0  0  0  0  0
   -2.9119    0.2055   -0.0542 C   0  0  0  0  0  0  0  0  0  0  0  0
    1.7952    1.5239    0.2072 H   0  0  0  0  0  0  0  0  0  0  0  0
    3.6648   -0.3740    1.7006 H   0  0  0  0  0  0  0  0  0  0  0  0
    3.8271    1.3863    1.5589 H   0  0  0  0  0  0  0  0  0  0  0  0
    2.4645    0.6832    2.4458 H   0  0  0  0  0  0  0  0  0  0  0  0
    4.0034    0.8643   -0.7467 H   0  0  0  0  0  0  0  0  0  0  0  0
   -0.6444   -2.2339   -0.7047 H   0  0  0  0  0  0  0  0  0  0  0  0
   -0.0872    1.6505    1.1205 H   0  0  0  0  0  0  0  0  0  0  0  0
    1.5842    0.1915   -2.2955 H   0  0  0  0  0  0  0  0  0  0  0  0
    3.1708    0.6093   -2.9308 H   0  0  0  0  0  0  0  0  0  0  0  0
    2.2437    1.8320   -2.0566 H   0  0  0  0  0  0  0  0  0  0  0  0
   -3.0395   -1.7678   -0.9315 H   0  0  0  0  0  0  0  0  0  0  0  0
   -2.4593    2.1128    0.8605 H   0  0  0  0  0  0  0  0  0  0  0  0
  1 13  1  0  0  0  0
  2  5  2  0  0  0  0
  3  4  1  0  0  0  0
  3 10  1  0  0  0  0
  3 18  1  0  0  0  0
  4  5  1  0  0  0  0
  4  7  1  0  0  0  0
  4 14  1  0  0  0  0
  5  6  1  0  0  0  0
  6  8  2  0  0  0  0
  6  9  1  0  0  0  0
  7 15  1  0  0  0  0
  7 16  1  0  0  0  0
  7 17  1  0  0  0  0
  8 11  1  0  0  0  0
  8 19  1  0  0  0  0
  9 12  2  0  0  0  0
  9 20  1  0  0  0  0
 10 21  1  0  0  0  0
 10 22  1  0  0  0  0
 10 23  1  0  0  0  0
 11 13  2  0  0  0  0
 11 24  1  0  0  0  0
 12 13  1  0  0  0  0
 12 25  1  0  0  0  0
M  END
> <PUBCHEM_COMPOUND_CID>
82100418

> <PUBCHEM_CONFORMER_RMSD>
0.6

> <PUBCHEM_CONFORMER_DIVERSEORDER>
1
21
12
10
8
15
3
4
14
19
7
17
5
18
6
20
11
9
2
13
16

> <PUBCHEM_MMFF94_PARTIAL_CHARGES>
17
1 -0.18
10 0.27
11 -0.15
12 -0.15
13 0.18
18 0.36
19 0.15
2 -0.57
20 0.15
24 0.15
25 0.15
3 -0.9
4 0.33
5 0.42
6 0.09
8 -0.15
9 -0.15

> <PUBCHEM_EFFECTIVE_ROTOR_COUNT>
3

> <PUBCHEM_PHARMACOPHORE_FEATURES>
4
1 2 acceptor
1 3 cation
1 3 donor
6 6 8 9 11 12 13 rings

> <PUBCHEM_HEAVY_ATOM_COUNT>
13

> <PUBCHEM_ATOM_DEF_STEREO_COUNT>
0

> <PUBCHEM_ATOM_UDEF_STEREO_COUNT>
1

> <PUBCHEM_BOND_DEF_STEREO_COUNT>
0

> <PUBCHEM_BOND_UDEF_STEREO_COUNT>
0

> <PUBCHEM_ISOTOPIC_ATOM_COUNT>
0

> <PUBCHEM_COMPONENT_COUNT>
1

> <PUBCHEM_CACTVS_TAUTO_COUNT>
2

> <PUBCHEM_CONFORMER_ID>
04E4C0C200000001

> <PUBCHEM_MMFF94_ENERGY>
29.4593

> <PUBCHEM_FEATURE_SELFOVERLAP>
20.297

> <PUBCHEM_SHAPE_FINGERPRINT>
11031198 65 18259994772542600459
12897270 3 18131634495197442234
12932764 1 18201721738765709555
13296908 3 17703511094454692191
14993402 34 18342458136605675605
15219456 202 16917068901402314960
15775835 57 17968103070131508052
16945 1 18411981390384651273
1813 80 17533491237047308346
18186145 218 17846781771917497617
19026448 5 17095520721264970891
19786989 88 17095524015040942567
20201158 50 16415209965920146596
20279233 1 17131834291394641150
20523700 14 18410013255870234255
20539784 86 15140958478596516044
20559304 39 18270675351306958674
20645476 183 18334300902509550687
20645477 70 15554452885531880437
20671657 53 15697182659509158836
22802520 49 17274559649496692886
23402539 116 17703210910800822184
23552423 10 18264487291323594155
23557571 272 17630886208024592398
23559900 14 18060701715167637780
31174 14 15285356240865123124
3248919 1 17967530181534008307
4990 188 17203612566872397493
537710 114 18410293605966706209
633830 44 17131834227545443417
7364860 26 18059569123364599154
8030462 33 18341336612721790475

> <PUBCHEM_SHAPE_MULTIPOLES>
258.55
6.56
1.35
1.3
3.25
0.05
0.59
1.08
1.38
0
-0.25
-1.47
-0.28
0.6

> <PUBCHEM_SHAPE_SELFOVERLAP>
519.202

> <PUBCHEM_SHAPE_VOLUME>
153.1

> <PUBCHEM_COORDINATE_TYPE>
2
5
10

$$$$
