91696119
  -OEChem-12271618493D

 31 31  0     1  0  0  0  0  0999 V2000
   -1.1606    0.5649   -2.0311 O   0  0  0  0  0  0  0  0  0  0  0  0
   -2.8392    0.0515    0.3030 N   0  0  0  0  0  0  0  0  0  0  0  0
   -1.6974    0.9681    0.2857 C   0  0  1  0  0  0  0  0  0  0  0  0
   -0.7452    0.5417   -0.8529 C   0  0  0  0  0  0  0  0  0  0  0  0
    0.6111    0.1030   -0.5643 C   0  0  0  0  0  0  0  0  0  0  0  0
   -2.1892    2.3919    0.0598 C   0  0  0  0  0  0  0  0  0  0  0  0
   -2.4880   -1.1936    0.9664 C   0  0  0  0  0  0  0  0  0  0  0  0
    1.2873    0.6106    0.5450 C   0  0  0  0  0  0  0  0  0  0  0  0
    2.5884    0.1903    0.8214 C   0  0  0  0  0  0  0  0  0  0  0  0
    1.2359   -0.8251   -1.3975 C   0  0  0  0  0  0  0  0  0  0  0  0
   -3.6653   -2.1537    0.9908 C   0  0  0  0  0  0  0  0  0  0  0  0
    3.2132   -0.7378   -0.0118 C   0  0  0  0  0  0  0  0  0  0  0  0
    2.5369   -1.2453   -1.1214 C   0  0  0  0  0  0  0  0  0  0  0  0
    3.3121    0.7336    2.0067 C   0  0  0  0  0  0  0  0  0  0  0  0
   -1.2045    0.9485    1.2611 H   0  0  0  0  0  0  0  0  0  0  0  0
   -3.6189    0.4811    0.8011 H   0  0  0  0  0  0  0  0  0  0  0  0
   -2.7464    2.4862   -0.8794 H   0  0  0  0  0  0  0  0  0  0  0  0
   -2.8422    2.7205    0.8758 H   0  0  0  0  0  0  0  0  0  0  0  0
   -1.3429    3.0858    0.0062 H   0  0  0  0  0  0  0  0  0  0  0  0
   -1.6590   -1.6906    0.4505 H   0  0  0  0  0  0  0  0  0  0  0  0
   -2.1730   -1.0052    1.9999 H   0  0  0  0  0  0  0  0  0  0  0  0
    0.8400    1.3622    1.1888 H   0  0  0  0  0  0  0  0  0  0  0  0
    0.7239   -1.2359   -2.2638 H   0  0  0  0  0  0  0  0  0  0  0  0
   -4.5143   -1.7261    1.5348 H   0  0  0  0  0  0  0  0  0  0  0  0
   -3.9965   -2.3984   -0.0241 H   0  0  0  0  0  0  0  0  0  0  0  0
   -3.3824   -3.0873    1.4877 H   0  0  0  0  0  0  0  0  0  0  0  0
    4.2271   -1.0724    0.1911 H   0  0  0  0  0  0  0  0  0  0  0  0
    3.0233   -1.9683   -1.7697 H   0  0  0  0  0  0  0  0  0  0  0  0
    3.7823    1.6892    1.7543 H   0  0  0  0  0  0  0  0  0  0  0  0
    2.6268    0.8880    2.8471 H   0  0  0  0  0  0  0  0  0  0  0  0
    4.0897    0.0430    2.3506 H   0  0  0  0  0  0  0  0  0  0  0  0
  1  4  2  0  0  0  0
  2  3  1  0  0  0  0
  2  7  1  0  0  0  0
  2 16  1  0  0  0  0
  3  4  1  0  0  0  0
  3  6  1  0  0  0  0
  3 15  1  0  0  0  0
  4  5  1  0  0  0  0
  5  8  1  0  0  0  0
  5 10  2  0  0  0  0
  6 17  1  0  0  0  0
  6 18  1  0  0  0  0
  6 19  1  0  0  0  0
  7 11  1  0  0  0  0
  7 20  1  0  0  0  0
  7 21  1  0  0  0  0
  8  9  2  0  0  0  0
  8 22  1  0  0  0  0
  9 12  1  0  0  0  0
  9 14  1  0  0  0  0
 10 13  1  0  0  0  0
 10 23  1  0  0  0  0
 11 24  1  0  0  0  0
 11 25  1  0  0  0  0
 11 26  1  0  0  0  0
 12 13  2  0  0  0  0
 12 27  1  0  0  0  0
 13 28  1  0  0  0  0
 14 29  1  0  0  0  0
 14 30  1  0  0  0  0
 14 31  1  0  0  0  0
M  END
> <PUBCHEM_COMPOUND_CID>
91696119

> <PUBCHEM_CONFORMER_RMSD>
0.6

> <PUBCHEM_CONFORMER_DIVERSEORDER>
1
100
101
133
74
99
137
96
45
35
130
89
132
121
28
97
104
5
42
33
115
90
92
48
127
111
16
36
59
120
63
84
123
56
77
94
14
76
71
65
72
124
82
102
135
69
79
95
67
53
7
105
31
55
12
118
119
43
110
64
122
52
93
61
54
39
4
30
126
29
88
17
136
73
128
46
113
75
50
27
91
98
6
22
86
108
129
131
68
125
21
15
23
66
117
13
18
103
60
11
114
40
83
38
116
78
62
85
10
47
49
70
41
44
20
87
26
109
51
80
57
25
81
9
2
58
24
112
37
34
8
32
107
19
3
106
134

> <PUBCHEM_MMFF94_PARTIAL_CHARGES>
17
1 -0.57
10 -0.15
12 -0.15
13 -0.15
14 0.14
16 0.36
2 -0.9
22 0.15
23 0.15
27 0.15
28 0.15
3 0.33
4 0.42
5 0.09
7 0.27
8 -0.15
9 -0.14

> <PUBCHEM_EFFECTIVE_ROTOR_COUNT>
4

> <PUBCHEM_PHARMACOPHORE_FEATURES>
4
1 1 acceptor
1 2 cation
1 2 donor
6 5 8 9 10 12 13 rings

> <PUBCHEM_HEAVY_ATOM_COUNT>
14

> <PUBCHEM_ATOM_DEF_STEREO_COUNT>
0

> <PUBCHEM_ATOM_UDEF_STEREO_COUNT>
1

> <PUBCHEM_BOND_DEF_STEREO_COUNT>
0

> <PUBCHEM_BOND_UDEF_STEREO_COUNT>
0

> <PUBCHEM_ISOTOPIC_ATOM_COUNT>
0

> <PUBCHEM_COMPONENT_COUNT>
1

> <PUBCHEM_CACTVS_TAUTO_COUNT>
2

> <PUBCHEM_CONFORMER_ID>
05772BF700000001

> <PUBCHEM_MMFF94_ENERGY>
26.7756

> <PUBCHEM_FEATURE_SELFOVERLAP>
20.297

> <PUBCHEM_SHAPE_FINGERPRINT>
11471102 22 17846782879792102454
12202030 40 18263086530747647054
124424 183 17842272567283647468
12491281 212 14620790548239223778
12500047 106 18118687612683970437
12932764 1 17489584554593545788
13294875 104 16610525798144618248
14178342 30 18187922820450062434
15653759 3 18271533000303984936
15852999 172 17680681779892688495
15906896 17 15720506530759725549
16945 1 18058433452427834988
17844478 74 18130793351601283920
18380122 1 18202002161327778545
19049666 15 17984712112196685219
19107657 9 13758085103260681059
20361792 2 16805333222831744143
20671657 53 16878501379575063623
20715346 28 18131069294770984540
22112679 90 17313684667012155261
23559900 14 18338525144330738782
251288 83 18266743677988051098
2748010 2 17916863526259181996
3086196 2 18261105305436285945
3248919 1 18335695010154561588
568465 68 17988932123924304754
603831 33 16081377349328019438
6049 1 18131082493237068668
63268167 104 16701725073878416304
6338986 31 16081357587893223066
77492 1 16660652829612268536
81228 2 18336558131520529073
88987 49 18114185168387108381

> <PUBCHEM_SHAPE_MULTIPOLES>
277.26
6.01
1.87
1.66
0.61
0.22
0.05
-1.68
-2.89
1.59
-0.23
-0.4
-0.11
1.88

> <PUBCHEM_SHAPE_SELFOVERLAP>
559.832

> <PUBCHEM_SHAPE_VOLUME>
163.8

> <PUBCHEM_COORDINATE_TYPE>
2
5
10

$$$$
