57504017
  -OEChem-12271620073D

 34 36  0     1  0  0  0  0  0999 V2000
   -1.5576    1.9831   -0.2390 N   0  0  0  0  0  0  0  0  0  0  0  0
   -0.9628   -1.5423   -0.4198 C   0  0  1  0  0  0  0  0  0  0  0  0
   -2.2589   -0.2076    0.8114 C   0  0  2  0  0  0  0  0  0  0  0  0
   -0.2740   -0.1549   -0.5917 C   0  0  1  0  0  0  0  0  0  0  0  0
   -1.1136    0.7376    0.3702 C   0  0  1  0  0  0  0  0  0  0  0  0
   -1.4819   -1.5084    1.0220 C   0  0  0  0  0  0  0  0  0  0  0  0
   -2.2891   -1.5191   -1.2074 C   0  0  0  0  0  0  0  0  0  0  0  0
   -3.1764   -0.5946   -0.3628 C   0  0  0  0  0  0  0  0  0  0  0  0
    1.2116   -0.0710   -0.2906 C   0  0  0  0  0  0  0  0  0  0  0  0
    2.0091    0.8531   -0.9654 C   0  0  0  0  0  0  0  0  0  0  0  0
    1.7788   -0.9184    0.6611 C   0  0  0  0  0  0  0  0  0  0  0  0
   -2.3447    2.7717    0.6999 C   0  0  0  0  0  0  0  0  0  0  0  0
    3.3742    0.9299   -0.6887 C   0  0  0  0  0  0  0  0  0  0  0  0
    3.1437   -0.8416    0.9380 C   0  0  0  0  0  0  0  0  0  0  0  0
    3.9414    0.0826    0.2630 C   0  0  0  0  0  0  0  0  0  0  0  0
   -0.3342   -2.3987   -0.6747 H   0  0  0  0  0  0  0  0  0  0  0  0
   -2.8044    0.1327    1.6948 H   0  0  0  0  0  0  0  0  0  0  0  0
   -0.4054    0.1593   -1.6371 H   0  0  0  0  0  0  0  0  0  0  0  0
   -0.5107    0.9813    1.2576 H   0  0  0  0  0  0  0  0  0  0  0  0
   -2.1310   -2.3590    1.2594 H   0  0  0  0  0  0  0  0  0  0  0  0
   -0.7287   -1.4172    1.8057 H   0  0  0  0  0  0  0  0  0  0  0  0
   -2.7290   -2.5220   -1.2543 H   0  0  0  0  0  0  0  0  0  0  0  0
   -2.1694   -1.1551   -2.2326 H   0  0  0  0  0  0  0  0  0  0  0  0
   -4.0532   -1.1451   -0.0027 H   0  0  0  0  0  0  0  0  0  0  0  0
   -3.5339    0.2670   -0.9339 H   0  0  0  0  0  0  0  0  0  0  0  0
   -0.7437    2.5223   -0.5335 H   0  0  0  0  0  0  0  0  0  0  0  0
    1.5793    1.5205   -1.7075 H   0  0  0  0  0  0  0  0  0  0  0  0
    1.2112   -1.6707    1.1923 H   0  0  0  0  0  0  0  0  0  0  0  0
   -1.7962    2.9700    1.6266 H   0  0  0  0  0  0  0  0  0  0  0  0
   -2.5802    3.7386    0.2431 H   0  0  0  0  0  0  0  0  0  0  0  0
   -3.3003    2.2953    0.9375 H   0  0  0  0  0  0  0  0  0  0  0  0
    3.9952    1.6496   -1.2140 H   0  0  0  0  0  0  0  0  0  0  0  0
    3.5874   -1.5054    1.6743 H   0  0  0  0  0  0  0  0  0  0  0  0
    5.0045    0.1413    0.4776 H   0  0  0  0  0  0  0  0  0  0  0  0
  1  5  1  0  0  0  0
  1 12  1  0  0  0  0
  1 26  1  0  0  0  0
  2  4  1  0  0  0  0
  2  6  1  0  0  0  0
  2  7  1  0  0  0  0
  2 16  1  0  0  0  0
  3  5  1  0  0  0  0
  3  6  1  0  0  0  0
  3  8  1  0  0  0  0
  3 17  1  0  0  0  0
  4  5  1  0  0  0  0
  4  9  1  0  0  0  0
  4 18  1  0  0  0  0
  5 19  1  0  0  0  0
  6 20  1  0  0  0  0
  6 21  1  0  0  0  0
  7  8  1  0  0  0  0
  7 22  1  0  0  0  0
  7 23  1  0  0  0  0
  8 24  1  0  0  0  0
  8 25  1  0  0  0  0
  9 10  2  0  0  0  0
  9 11  1  0  0  0  0
 10 13  1  0  0  0  0
 10 27  1  0  0  0  0
 11 14  2  0  0  0  0
 11 28  1  0  0  0  0
 12 29  1  0  0  0  0
 12 30  1  0  0  0  0
 12 31  1  0  0  0  0
 13 15  2  0  0  0  0
 13 32  1  0  0  0  0
 14 15  1  0  0  0  0
 14 33  1  0  0  0  0
 15 34  1  0  0  0  0
M  END
> <PUBCHEM_COMPOUND_CID>
57504017

> <PUBCHEM_CONFORMER_RMSD>
0.6

> <PUBCHEM_CONFORMER_DIVERSEORDER>
2
9
12
1
13
8
3
7
10
11
4
5
6

> <PUBCHEM_MMFF94_PARTIAL_CHARGES>
16
1 -0.9
10 -0.15
11 -0.15
12 0.27
13 -0.15
14 -0.15
15 -0.15
26 0.36
27 0.15
28 0.15
32 0.15
33 0.15
34 0.15
4 0.14
5 0.27
9 -0.14

> <PUBCHEM_EFFECTIVE_ROTOR_COUNT>
3

> <PUBCHEM_PHARMACOPHORE_FEATURES>
4
1 1 cation
1 1 donor
6 9 10 11 13 14 15 rings
7 2 3 4 5 6 7 8 rings

> <PUBCHEM_HEAVY_ATOM_COUNT>
15

> <PUBCHEM_ATOM_DEF_STEREO_COUNT>
0

> <PUBCHEM_ATOM_UDEF_STEREO_COUNT>
4

> <PUBCHEM_BOND_DEF_STEREO_COUNT>
0

> <PUBCHEM_BOND_UDEF_STEREO_COUNT>
0

> <PUBCHEM_ISOTOPIC_ATOM_COUNT>
0

> <PUBCHEM_COMPONENT_COUNT>
1

> <PUBCHEM_CACTVS_TAUTO_COUNT>
1

> <PUBCHEM_CONFORMER_ID>
036D711100000002

> <PUBCHEM_MMFF94_ENERGY>
50.2837

> <PUBCHEM_FEATURE_SELFOVERLAP>
20.297

> <PUBCHEM_SHAPE_FINGERPRINT>
12932764 1 18131634499893394754
13024252 1 17967811669738551047
13296908 3 15574710313827097890
13296909 8 18270103652668510088
13764800 53 17987809509487992033
14144814 61 18113899355836040618
14614273 12 17917715682140775391
14787075 74 17179419183434139140
15076042 46 18335426750570583507
15442244 35 18190738635907251746
15669948 3 18342176695513852302
15775835 57 18343026579294631058
15906896 17 18410859820005380947
16752209 62 18341607096956266487
16945 1 18340774818114701639
19868273 325 18200314458339749205
200 152 18261381303981820254
20510252 161 18273500052455183377
20525323 117 18410295808736108036
21452121 199 16694113421310292375
21501502 16 18335981965625319866
21524375 3 18122626042134485025
22112679 90 17985280813475299951
22445834 79 18113335280559132914
2306618 200 17821998826787002949
23236772 104 18259704501467528192
23402539 116 18272642468351840023
23557571 272 17846780715387126296
23559900 14 18201993318702142658
2748010 2 17982752782771316317
3248919 1 18114178649011738346
3312278 4 18042409199649733354
369184 2 17676204710236067927
5706482 22 18338794490604642033
77492 1 18334294288270145734
8030462 33 18333733550293388742
81228 2 18412834589954340801
90525 40 18410294670754527478

> <PUBCHEM_SHAPE_MULTIPOLES>
303.71
5.87
2.08
1.11
4.34
1.33
-0.01
0.32
0.17
-1.88
0.22
-0.06
-0.18
-0.96

> <PUBCHEM_SHAPE_SELFOVERLAP>
654.093

> <PUBCHEM_SHAPE_VOLUME>
170.8

> <PUBCHEM_COORDINATE_TYPE>
2
5
10

$$$$
