82100224
  -OEChem-12271618583D

 34 34  0     1  0  0  0  0  0999 V2000
    1.7228   -1.4015   -1.4830 O   0  0  0  0  0  0  0  0  0  0  0  0
    3.2323    0.4572    0.1893 N   0  0  0  0  0  0  0  0  0  0  0  0
    2.2969   -0.5474    0.6987 C   0  0  1  0  0  0  0  0  0  0  0  0
    1.2947   -0.8962   -0.4233 C   0  0  0  0  0  0  0  0  0  0  0  0
   -0.1256   -0.6283   -0.2629 C   0  0  0  0  0  0  0  0  0  0  0  0
    3.0661   -1.7903    1.1272 C   0  0  0  0  0  0  0  0  0  0  0  0
    2.6303    1.7804    0.2176 C   0  0  0  0  0  0  0  0  0  0  0  0
   -2.8507   -0.1160    0.0438 C   0  0  0  0  0  0  0  0  0  0  0  0
   -0.7026   -0.6592    1.0068 C   0  0  0  0  0  0  0  0  0  0  0  0
   -0.9113   -0.3410   -1.3792 C   0  0  0  0  0  0  0  0  0  0  0  0
   -4.3076    0.1579    0.2082 C   0  0  0  0  0  0  0  0  0  0  0  0
   -2.0651   -0.4030    1.1601 C   0  0  0  0  0  0  0  0  0  0  0  0
   -2.2738   -0.0849   -1.2258 C   0  0  0  0  0  0  0  0  0  0  0  0
    3.5918    2.8323   -0.3090 C   0  0  0  0  0  0  0  0  0  0  0  0
   -4.5982    1.6399    0.4316 C   0  0  0  0  0  0  0  0  0  0  0  0
    1.7957   -0.1564    1.5880 H   0  0  0  0  0  0  0  0  0  0  0  0
    4.0750    0.4668    0.7640 H   0  0  0  0  0  0  0  0  0  0  0  0
    3.6444   -2.2170    0.2995 H   0  0  0  0  0  0  0  0  0  0  0  0
    3.7597   -1.5656    1.9449 H   0  0  0  0  0  0  0  0  0  0  0  0
    2.3762   -2.5671    1.4752 H   0  0  0  0  0  0  0  0  0  0  0  0
    1.7261    1.8113   -0.4004 H   0  0  0  0  0  0  0  0  0  0  0  0
    2.3448    2.0530    1.2407 H   0  0  0  0  0  0  0  0  0  0  0  0
   -0.1335   -0.9132    1.8954 H   0  0  0  0  0  0  0  0  0  0  0  0
   -0.4792   -0.3069   -2.3759 H   0  0  0  0  0  0  0  0  0  0  0  0
   -4.8562   -0.1912   -0.6755 H   0  0  0  0  0  0  0  0  0  0  0  0
   -4.7049   -0.4218    1.0508 H   0  0  0  0  0  0  0  0  0  0  0  0
   -2.5043   -0.4359    2.1537 H   0  0  0  0  0  0  0  0  0  0  0  0
   -2.8746    0.1405   -2.1030 H   0  0  0  0  0  0  0  0  0  0  0  0
    4.5013    2.8781    0.2995 H   0  0  0  0  0  0  0  0  0  0  0  0
    3.8817    2.6199   -1.3436 H   0  0  0  0  0  0  0  0  0  0  0  0
    3.1212    3.8205   -0.2865 H   0  0  0  0  0  0  0  0  0  0  0  0
   -4.0996    2.0096    1.3339 H   0  0  0  0  0  0  0  0  0  0  0  0
   -5.6747    1.8003    0.5476 H   0  0  0  0  0  0  0  0  0  0  0  0
   -4.2533    2.2431   -0.4151 H   0  0  0  0  0  0  0  0  0  0  0  0
  1  4  2  0  0  0  0
  2  3  1  0  0  0  0
  2  7  1  0  0  0  0
  2 17  1  0  0  0  0
  3  4  1  0  0  0  0
  3  6  1  0  0  0  0
  3 16  1  0  0  0  0
  4  5  1  0  0  0  0
  5  9  2  0  0  0  0
  5 10  1  0  0  0  0
  6 18  1  0  0  0  0
  6 19  1  0  0  0  0
  6 20  1  0  0  0  0
  7 14  1  0  0  0  0
  7 21  1  0  0  0  0
  7 22  1  0  0  0  0
  8 11  1  0  0  0  0
  8 12  2  0  0  0  0
  8 13  1  0  0  0  0
  9 12  1  0  0  0  0
  9 23  1  0  0  0  0
 10 13  2  0  0  0  0
 10 24  1  0  0  0  0
 11 15  1  0  0  0  0
 11 25  1  0  0  0  0
 11 26  1  0  0  0  0
 12 27  1  0  0  0  0
 13 28  1  0  0  0  0
 14 29  1  0  0  0  0
 14 30  1  0  0  0  0
 14 31  1  0  0  0  0
 15 32  1  0  0  0  0
 15 33  1  0  0  0  0
 15 34  1  0  0  0  0
M  END
> <PUBCHEM_COMPOUND_CID>
82100224

> <PUBCHEM_CONFORMER_RMSD>
0.6

> <PUBCHEM_CONFORMER_DIVERSEORDER>
1
107
140
115
83
99
132
85
33
133
98
154
81
138
134
30
106
50
76
122
151
93
68
153
148
42
26
128
144
112
130
137
139
66
53
7
117
88
14
91
65
150
102
126
51
141
36
82
129
159
158
124
15
71
13
152
61
89
46
108
60
110
72
109
160
6
74
136
120
75
49
10
56
78
44
149
19
157
155
105
114
77
113
11
123
48
31
9
37
127
156
116
21
59
29
125
97
145
131
87
101
90
58
84
111
12
86
18
147
92
100
146
64
70
142
5
67
32
80
41
23
95
119
143
69
25
96
3
118
17
135
79
20
54
40
121
28
45
103
94
27
104
4
24
57
62
43
35
55
73
63
52
38
8
34
2
39
22
16
47

> <PUBCHEM_MMFF94_PARTIAL_CHARGES>
17
1 -0.57
10 -0.15
11 0.14
12 -0.15
13 -0.15
17 0.36
2 -0.9
23 0.15
24 0.15
27 0.15
28 0.15
3 0.33
4 0.42
5 0.09
7 0.27
8 -0.14
9 -0.15

> <PUBCHEM_EFFECTIVE_ROTOR_COUNT>
5

> <PUBCHEM_PHARMACOPHORE_FEATURES>
5
1 1 acceptor
1 15 hydrophobe
1 2 cation
1 2 donor
6 5 8 9 10 12 13 rings

> <PUBCHEM_HEAVY_ATOM_COUNT>
15

> <PUBCHEM_ATOM_DEF_STEREO_COUNT>
0

> <PUBCHEM_ATOM_UDEF_STEREO_COUNT>
1

> <PUBCHEM_BOND_DEF_STEREO_COUNT>
0

> <PUBCHEM_BOND_UDEF_STEREO_COUNT>
0

> <PUBCHEM_ISOTOPIC_ATOM_COUNT>
0

> <PUBCHEM_COMPONENT_COUNT>
1

> <PUBCHEM_CACTVS_TAUTO_COUNT>
7

> <PUBCHEM_CONFORMER_ID>
04E4C00000000001

> <PUBCHEM_MMFF94_ENERGY>
26.4412

> <PUBCHEM_FEATURE_SELFOVERLAP>
25.371

> <PUBCHEM_SHAPE_FINGERPRINT>
11089746 13 18043236948013191413
11769659 78 7997970163542212017
12032990 46 15213312863596440051
12616999 72 17632580469680773479
12633257 1 17531791563399817352
12932764 1 18040429979888210902
14115302 16 17060335206361748190
14123255 52 18127974315779089096
14178342 30 17241336917800247859
14251764 38 18266736875346254469
14252887 29 14851609851763738266
14289901 80 18410571829542436963
14415576 193 18273498961496501661
15342168 16 18263364848701842773
15775835 57 18199748218636954228
1813 80 17914345576508515814
18186145 218 18334292033375411567
19026448 5 18341603820281568743
19049666 15 17315050204772115790
19786989 88 18341607131200148927
200 152 9151173164289311322
20539784 86 18040708165399631066
20645476 183 17418089961985200719
21503847 285 18411423877854785660
21524375 3 18051971713012503396
22169311 14 18113901533073450995
2255824 54 17988089885185488958
23559900 14 17774728541239606791
2748010 2 15504321645359821667
31174 14 18113892737175444854
3286 77 17968656008373724219
449060 62 18337390538789333708
474 4 18410854386428789345
4990 188 12967129402376159313
633830 44 18341898442263780047

> <PUBCHEM_SHAPE_MULTIPOLES>
297.84
7.84
2.05
1.27
3.98
1.51
0.27
4.12
-1.51
-2.78
-0.17
0.14
-0.4
-0.47

> <PUBCHEM_SHAPE_SELFOVERLAP>
598.66

> <PUBCHEM_SHAPE_VOLUME>
176.1

> <PUBCHEM_COORDINATE_TYPE>
2
5
10

$$$$
