6430836
  -OEChem-12271619263D

 36 37  0     1  0  0  0  0  0999 V2000
   -0.9268   -1.8123    1.4276 O   0  0  0  0  0  0  0  0  0  0  0  0
    4.6126    0.8136    0.0279 O   0  0  0  0  0  0  0  0  0  0  0  0
   -2.7021   -0.0453   -0.0517 N   0  0  0  0  0  0  0  0  0  0  0  0
   -2.2183    1.2063    0.5303 C   0  0  0  0  0  0  0  0  0  0  0  0
   -3.7198    0.3559   -1.0226 C   0  0  0  0  0  0  0  0  0  0  0  0
   -3.4973    2.0046    0.7347 C   0  0  0  0  0  0  0  0  0  0  0  0
   -4.4853    1.4434   -0.2834 C   0  0  0  0  0  0  0  0  0  0  0  0
   -1.6337   -0.8262   -0.6574 C   0  0  2  0  0  0  0  0  0  0  0  0
   -2.2065   -2.1131   -1.2364 C   0  0  0  0  0  0  0  0  0  0  0  0
   -0.6232   -1.1447    0.4393 C   0  0  0  0  0  0  0  0  0  0  0  0
    0.7710   -0.6227    0.3297 C   0  0  0  0  0  0  0  0  0  0  0  0
    1.3074   -0.4337   -0.9233 C   0  0  0  0  0  0  0  0  0  0  0  0
    1.4657   -0.3509    1.4860 C   0  0  0  0  0  0  0  0  0  0  0  0
    2.6103    0.0537   -1.0256 C   0  0  0  0  0  0  0  0  0  0  0  0
    2.7686    0.1367    1.3838 C   0  0  0  0  0  0  0  0  0  0  0  0
    3.3409    0.3391    0.1279 C   0  0  0  0  0  0  0  0  0  0  0  0
    5.1364    0.9956   -1.2868 C   0  0  0  0  0  0  0  0  0  0  0  0
   -1.5537    1.7474   -0.1559 H   0  0  0  0  0  0  0  0  0  0  0  0
   -1.6996    1.0658    1.4840 H   0  0  0  0  0  0  0  0  0  0  0  0
   -4.3933   -0.4612   -1.2994 H   0  0  0  0  0  0  0  0  0  0  0  0
   -3.2756    0.7732   -1.9355 H   0  0  0  0  0  0  0  0  0  0  0  0
   -3.3292    3.0764    0.5878 H   0  0  0  0  0  0  0  0  0  0  0  0
   -3.8890    1.8614    1.7486 H   0  0  0  0  0  0  0  0  0  0  0  0
   -5.3545    1.0240    0.2367 H   0  0  0  0  0  0  0  0  0  0  0  0
   -4.8452    2.2178   -0.9685 H   0  0  0  0  0  0  0  0  0  0  0  0
   -1.1809   -0.2508   -1.4686 H   0  0  0  0  0  0  0  0  0  0  0  0
   -2.8155   -2.6563   -0.5040 H   0  0  0  0  0  0  0  0  0  0  0  0
   -2.8187   -1.9305   -2.1255 H   0  0  0  0  0  0  0  0  0  0  0  0
   -1.3959   -2.7869   -1.5377 H   0  0  0  0  0  0  0  0  0  0  0  0
    0.7875   -0.6858   -1.8406 H   0  0  0  0  0  0  0  0  0  0  0  0
    1.0307   -0.4978    2.4698 H   0  0  0  0  0  0  0  0  0  0  0  0
    2.9972    0.1782   -2.0313 H   0  0  0  0  0  0  0  0  0  0  0  0
    3.3325    0.3583    2.2859 H   0  0  0  0  0  0  0  0  0  0  0  0
    4.5690    1.7475   -1.8457 H   0  0  0  0  0  0  0  0  0  0  0  0
    5.2093    0.0451   -1.8259 H   0  0  0  0  0  0  0  0  0  0  0  0
    6.1558    1.3803   -1.1781 H   0  0  0  0  0  0  0  0  0  0  0  0
  1 10  2  0  0  0  0
  2 16  1  0  0  0  0
  2 17  1  0  0  0  0
  3  4  1  0  0  0  0
  3  5  1  0  0  0  0
  3  8  1  0  0  0  0
  4  6  1  0  0  0  0
  4 18  1  0  0  0  0
  4 19  1  0  0  0  0
  5  7  1  0  0  0  0
  5 20  1  0  0  0  0
  5 21  1  0  0  0  0
  6  7  1  0  0  0  0
  6 22  1  0  0  0  0
  6 23  1  0  0  0  0
  7 24  1  0  0  0  0
  7 25  1  0  0  0  0
  8  9  1  0  0  0  0
  8 10  1  0  0  0  0
  8 26  1  0  0  0  0
  9 27  1  0  0  0  0
  9 28  1  0  0  0  0
  9 29  1  0  0  0  0
 10 11  1  0  0  0  0
 11 12  2  0  0  0  0
 11 13  1  0  0  0  0
 12 14  1  0  0  0  0
 12 30  1  0  0  0  0
 13 15  2  0  0  0  0
 13 31  1  0  0  0  0
 14 16  2  0  0  0  0
 14 32  1  0  0  0  0
 15 16  1  0  0  0  0
 15 33  1  0  0  0  0
 17 34  1  0  0  0  0
 17 35  1  0  0  0  0
 17 36  1  0  0  0  0
M  END
> <PUBCHEM_COMPOUND_CID>
6430836

> <PUBCHEM_CONFORMER_RMSD>
0.6

> <PUBCHEM_CONFORMER_DIVERSEORDER>
5
39
42
3
22
19
40
27
33
48
21
24
51
52
32
10
25
31
47
45
36
37
9
35
34
38
11
44
41
16
50
18
7
30
43
46
26
28
20
14
49
12
23
4
17
13
29
2
6
15
8
1

> <PUBCHEM_MMFF94_PARTIAL_CHARGES>
18
1 -0.57
10 0.42
11 0.09
12 -0.15
13 -0.15
14 -0.15
15 -0.15
16 0.08
17 0.28
2 -0.36
3 -0.81
30 0.15
31 0.15
32 0.15
33 0.15
4 0.27
5 0.27
8 0.33

> <PUBCHEM_EFFECTIVE_ROTOR_COUNT>
5

> <PUBCHEM_PHARMACOPHORE_FEATURES>
5
1 1 acceptor
1 2 acceptor
1 3 cation
5 3 4 5 6 7 rings
6 11 12 13 14 15 16 rings

> <PUBCHEM_HEAVY_ATOM_COUNT>
17

> <PUBCHEM_ATOM_DEF_STEREO_COUNT>
0

> <PUBCHEM_ATOM_UDEF_STEREO_COUNT>
1

> <PUBCHEM_BOND_DEF_STEREO_COUNT>
0

> <PUBCHEM_BOND_UDEF_STEREO_COUNT>
0

> <PUBCHEM_ISOTOPIC_ATOM_COUNT>
0

> <PUBCHEM_COMPONENT_COUNT>
1

> <PUBCHEM_CACTVS_TAUTO_COUNT>
2

> <PUBCHEM_CONFORMER_ID>
0062207400000005

> <PUBCHEM_MMFF94_ENERGY>
49.8384

> <PUBCHEM_FEATURE_SELFOVERLAP>
25.371

> <PUBCHEM_SHAPE_FINGERPRINT>
10498660 4 18129372705823245761
10618630 7 8430302555057577601
11046707 91 10159700183286483292
11471102 22 14996282500666568562
11640471 11 18187640280474429889
12186901 62 18059574728212245247
12236239 1 18113330916840659543
12251169 10 15285367201816750155
12500047 106 18131910477143376126
12507560 40 15140950721468718254
12788726 201 18044367472872571963
12892183 10 15574996109546377897
13288520 33 10591770882935165868
13675066 3 14418124132944102414
13764800 53 18408892828147456947
13994607 96 18260843608800024881
14123260 362 18335143102377376796
1420 369 10447930576845411340
14251752 14 13110972981247279337
14251764 75 17769388123333612169
14576447 43 13686297972330662700
14739800 52 18265877225062682760
15209294 21 17385726936912654288
15309172 13 16877657942181493715
15342168 16 17603587417476666943
15534591 1 18334294275258864259
15775835 57 18334288734856365457
17041 50 17561360720973237112
19784866 240 12463571785468886533
19862831 5 16128659643493569126
19868273 293 18272929431653234859
20112054 13 16950563272405555020
204376 136 17676489436460583563
20645477 56 18201723959400945031
20645477 70 15123509233474593052
20871999 31 17775276180187862629
21065199 12 14707204375264414797
21524375 3 18338511920490606547
21713013 43 15625926665066248045
221357 26 16343698794965521985
22620623 9 17416951989294807583
22854114 59 15357697482996056648
22926399 65 18343865506788138232
23402539 116 18411693305632626692
23402655 69 17203610328946750209
23557571 272 17988081209403843567
23559900 14 17775287145455835294
24859131 72 11169911688715934449
25 1 17203334351580789375
3086196 2 11025795392701883879
3472631 163 18410572881693620397
4028521 119 18272929397536316869
465052 167 11383246696497610749
474 4 18113620092451145300
5104073 3 16661204905700825816
568465 68 14490196002989280400
6049 1 17202758357553292627
633830 44 18263082107078745791
76465 3 11383837039356267572

> <PUBCHEM_SHAPE_MULTIPOLES>
333.13
9.06
1.77
1.42
4.16
0.24
-0.21
-5.27
3.1
-2.04
0.03
0.77
0.2
-0.58

> <PUBCHEM_SHAPE_SELFOVERLAP>
696.708

> <PUBCHEM_SHAPE_VOLUME>
191.7

> <PUBCHEM_COORDINATE_TYPE>
2
5
10

$$$$
