91936940
  -OEChem-12271619533D

 46 46  0     0  0  0  0  0  0999 V2000
    0.8505    1.1983    0.1879 O   0  0  0  0  0  0  0  0  0  0  0  0
   -0.0498    2.7425   -1.2627 O   0  0  0  0  0  0  0  0  0  0  0  0
   -6.1044   -0.5617   -0.2416 O   0  5  0  0  0  0  0  0  0  0  0  0
   -5.0879   -1.9533    1.1182 O   0  0  0  0  0  0  0  0  0  0  0  0
    3.4984   -1.1721   -0.2413 N   0  0  0  0  0  0  0  0  0  0  0  0
   -5.0713   -0.9651    0.3452 N   0  3  0  0  0  0  0  0  0  0  0  0
    3.1837    1.0549    0.9100 C   0  0  0  0  0  0  0  0  0  0  0  0
    2.9416   -0.4791    0.9176 C   0  0  0  0  0  0  0  0  0  0  0  0
    2.1335    1.7963    0.0522 C   0  0  0  0  0  0  0  0  0  0  0  0
    3.0947    1.5520    2.3683 C   0  0  0  0  0  0  0  0  0  0  0  0
    4.5874    1.3883    0.3706 C   0  0  0  0  0  0  0  0  0  0  0  0
    2.5866   -1.0784   -1.3818 C   0  0  0  0  0  0  0  0  0  0  0  0
    3.7698   -2.5733    0.0804 C   0  0  0  0  0  0  0  0  0  0  0  0
    2.4910   -3.3129    0.4353 C   0  0  0  0  0  0  0  0  0  0  0  0
    3.1795   -1.7401   -2.6143 C   0  0  0  0  0  0  0  0  0  0  0  0
   -0.1554    1.7732   -0.5273 C   0  0  0  0  0  0  0  0  0  0  0  0
   -1.4371    1.0592   -0.2997 C   0  0  0  0  0  0  0  0  0  0  0  0
   -2.5986    1.4895   -0.9413 C   0  0  0  0  0  0  0  0  0  0  0  0
   -1.4799   -0.0420    0.5553 C   0  0  0  0  0  0  0  0  0  0  0  0
   -3.8028    0.8188   -0.7277 C   0  0  0  0  0  0  0  0  0  0  0  0
   -2.6840   -0.7128    0.7691 C   0  0  0  0  0  0  0  0  0  0  0  0
   -3.8454   -0.2823    0.1276 C   0  0  0  0  0  0  0  0  0  0  0  0
    1.8863   -0.7170    1.0931 H   0  0  0  0  0  0  0  0  0  0  0  0
    3.4632   -0.8566    1.8097 H   0  0  0  0  0  0  0  0  0  0  0  0
    2.4203    1.8280   -1.0039 H   0  0  0  0  0  0  0  0  0  0  0  0
    2.0695    2.8436    0.3776 H   0  0  0  0  0  0  0  0  0  0  0  0
    3.8562    1.0808    3.0001 H   0  0  0  0  0  0  0  0  0  0  0  0
    3.2454    2.6359    2.4288 H   0  0  0  0  0  0  0  0  0  0  0  0
    2.1130    1.3279    2.8007 H   0  0  0  0  0  0  0  0  0  0  0  0
    5.3636    0.8536    0.9298 H   0  0  0  0  0  0  0  0  0  0  0  0
    4.7945    2.4609    0.4650 H   0  0  0  0  0  0  0  0  0  0  0  0
    4.6980    1.1352   -0.6893 H   0  0  0  0  0  0  0  0  0  0  0  0
    4.2989   -3.0854   -0.7303 H   0  0  0  0  0  0  0  0  0  0  0  0
    4.4644   -2.6265    0.9289 H   0  0  0  0  0  0  0  0  0  0  0  0
    1.5776   -1.4567   -1.1842 H   0  0  0  0  0  0  0  0  0  0  0  0
    2.4624   -0.0382   -1.6750 H   0  0  0  0  0  0  0  0  0  0  0  0
    4.2129   -1.4206   -2.7886 H   0  0  0  0  0  0  0  0  0  0  0  0
    1.9533   -2.8803    1.2834 H   0  0  0  0  0  0  0  0  0  0  0  0
    1.8023   -3.4198   -0.4072 H   0  0  0  0  0  0  0  0  0  0  0  0
    3.1510   -2.8324   -2.5600 H   0  0  0  0  0  0  0  0  0  0  0  0
    2.5985   -1.4558   -3.4991 H   0  0  0  0  0  0  0  0  0  0  0  0
    2.7539   -4.3344    0.7365 H   0  0  0  0  0  0  0  0  0  0  0  0
   -2.5859    2.3451   -1.6113 H   0  0  0  0  0  0  0  0  0  0  0  0
   -0.6010   -0.4109    1.0756 H   0  0  0  0  0  0  0  0  0  0  0  0
   -4.6876    1.1820   -1.2443 H   0  0  0  0  0  0  0  0  0  0  0  0
   -2.6802   -1.5666    1.4419 H   0  0  0  0  0  0  0  0  0  0  0  0
  1  9  1  0  0  0  0
  1 16  1  0  0  0  0
  2 16  2  0  0  0  0
  3  6  1  0  0  0  0
  4  6  2  0  0  0  0
  5  8  1  0  0  0  0
  5 12  1  0  0  0  0
  5 13  1  0  0  0  0
  6 22  1  0  0  0  0
  7  8  1  0  0  0  0
  7  9  1  0  0  0  0
  7 10  1  0  0  0  0
  7 11  1  0  0  0  0
  8 23  1  0  0  0  0
  8 24  1  0  0  0  0
  9 25  1  0  0  0  0
  9 26  1  0  0  0  0
 10 27  1  0  0  0  0
 10 28  1  0  0  0  0
 10 29  1  0  0  0  0
 11 30  1  0  0  0  0
 11 31  1  0  0  0  0
 11 32  1  0  0  0  0
 12 15  1  0  0  0  0
 12 35  1  0  0  0  0
 12 36  1  0  0  0  0
 13 14  1  0  0  0  0
 13 33  1  0  0  0  0
 13 34  1  0  0  0  0
 14 38  1  0  0  0  0
 14 39  1  0  0  0  0
 14 42  1  0  0  0  0
 15 37  1  0  0  0  0
 15 40  1  0  0  0  0
 15 41  1  0  0  0  0
 16 17  1  0  0  0  0
 17 18  2  0  0  0  0
 17 19  1  0  0  0  0
 18 20  1  0  0  0  0
 18 43  1  0  0  0  0
 19 21  2  0  0  0  0
 19 44  1  0  0  0  0
 20 22  2  0  0  0  0
 20 45  1  0  0  0  0
 21 22  1  0  0  0  0
 21 46  1  0  0  0  0
M  CHG  2   3  -1   6   1
M  END
> <PUBCHEM_COMPOUND_CID>
91936940

> <PUBCHEM_CONFORMER_RMSD>
0.8

> <PUBCHEM_CONFORMER_DIVERSEORDER>
1
243
117
248
25
61
185
255
227
228
176
262
290
267
161
171
294
287
75
94
144
38
168
133
318
268
22
129
202
213
172
134
154
197
224
132
198
249
300
59
181
165
137
92
24
70
107
225
35
167
180
143
29
206
163
251
242
316
140
151
259
280
311
48
304
241
302
120
299
204
95
106
188
275
139
60
240
292
211
62
142
74
169
17
174
309
19
41
201
112
173
296
152
223
125
312
222
303
13
286
271
261
148
179
218
44
270
182
247
53
43
229
58
109
282
63
157
138
136
91
96
308
127
192
32
199
190
28
147
216
67
186
55
111
87
277
4
266
252
119
160
45
99
104
177
9
8
203
84
178
193
230
276
297
205
258
30
284
36
285
85
221
100
291
101
238
78
56
250
68
88
124
194
7
130
16
289
135
66
162
288
83
71
220
15
69
319
317
77
175
14
86
212
20
123
2
128
158
153
207
118
81
39
49
65
253
209
103
208
72
219
195
279
278
295
246
217
200
34
320
314
131
10
23
264
80
274
232
184
11
57
260
315
245
79
51
73
3
257
105
21
159
12
307
237
26
155
54
42
298
98
116
110
93
269
27
46
5
191
141
113
254
33
226
108
183
170
146
196
115
90
114
265
231
256
189
305
145
121
122
244
126
149
272
236
313
40
156
235
50
18
239
263
47
234
37
6
214
310
233
281
301
166
293
210
89
150
273
64
82
31
283
164
215
102
52
187
76
306
97

> <PUBCHEM_MMFF94_PARTIAL_CHARGES>
21
1 -0.43
12 0.27
13 0.27
16 0.63
17 0.09
18 -0.15
19 -0.15
2 -0.57
20 -0.15
21 -0.15
22 0.13
3 -0.52
4 -0.52
43 0.15
44 0.15
45 0.15
46 0.15
5 -0.81
6 0.91
8 0.27
9 0.28

> <PUBCHEM_EFFECTIVE_ROTOR_COUNT>
9

> <PUBCHEM_PHARMACOPHORE_FEATURES>
7
1 2 acceptor
1 3 acceptor
1 3 anion
1 4 acceptor
1 5 cation
3 7 10 11 hydrophobe
6 17 18 19 20 21 22 rings

> <PUBCHEM_HEAVY_ATOM_COUNT>
22

> <PUBCHEM_ATOM_DEF_STEREO_COUNT>
0

> <PUBCHEM_ATOM_UDEF_STEREO_COUNT>
0

> <PUBCHEM_BOND_DEF_STEREO_COUNT>
0

> <PUBCHEM_BOND_UDEF_STEREO_COUNT>
0

> <PUBCHEM_ISOTOPIC_ATOM_COUNT>
0

> <PUBCHEM_COMPONENT_COUNT>
1

> <PUBCHEM_CACTVS_TAUTO_COUNT>
1

> <PUBCHEM_CONFORMER_ID>
057AD8AC00000001

> <PUBCHEM_MMFF94_ENERGY>
66.419

> <PUBCHEM_FEATURE_SELFOVERLAP>
35.603

> <PUBCHEM_SHAPE_FINGERPRINT>
114674 6 18408319986621076658
12596602 18 16772951561753618003
12633257 1 17060328622071252094
12892183 10 18130785681122516217
13150687 139 17752506493095199324
13402501 40 18408603669279393098
13464513 79 18272093786306188566
13533116 47 18202844357671011587
13583140 156 17632285787943943529
13911882 115 18410579526081314938
14251740 57 17988372537014724815
14251764 30 16341481020072361846
14252887 29 18409165532321160984
14386348 63 18334856121263057729
14848160 33 18129656388164797990
14863182 85 18334861662324653676
15142526 21 16411512480088709488
15342816 4 17240754095043768408
15422964 175 18334850610804485180
15635459 17 18408324388925118338
15664445 248 18187377561873849556
1813 80 17676492756908497829
20397935 70 18059582420804653479
20645477 70 18202282481179852254
21033650 10 16516528768192424068
21279426 13 18188480260846887205
21285901 2 18040425586394824901
21521721 280 17987798648549844320
22182313 1 18335126584386785309
22224240 67 18128243679317095680
23557571 272 17968369078862647476
23559900 14 18189609463050784796
239999 70 18413674617096242638
31174 14 18131345285433102312
33824 294 18412259554215954794
3421961 26 18411978031762605794
34797466 226 11241968162474098073
4463277 69 18342461434881953325
5104073 3 18270960146398923617
5352402 22 18202288000218050293
621550 34 18339348760514281712
6669772 16 18201156642510217444
6823239 73 18408044000654261354
8988823 20 17775278391932742817
9709674 26 18260266364994657689

> <PUBCHEM_SHAPE_MULTIPOLES>
419.31
11.03
3.02
1.63
12.71
1.19
-0.36
4.7
1.52
-2.94
-0.06
-1.49
0.11
2.33

> <PUBCHEM_SHAPE_SELFOVERLAP>
850.077

> <PUBCHEM_SHAPE_VOLUME>
245.4

> <PUBCHEM_COORDINATE_TYPE>
2
5
10

$$$$
