20326296
  -OEChem-12271619153D

 31 31  0     1  0  0  0  0  0999 V2000
    0.6601    0.3805    1.9444 O   0  0  0  0  0  0  0  0  0  0  0  0
    2.5172   -0.4604   -0.0893 N   0  0  0  0  0  0  0  0  0  0  0  0
    1.5073    0.5737   -0.3075 C   0  0  2  0  0  0  0  0  0  0  0  0
    2.1516    1.9578   -0.1418 C   0  0  0  0  0  0  0  0  0  0  0  0
    0.4220    0.3371    0.7383 C   0  0  0  0  0  0  0  0  0  0  0  0
    2.0970   -1.7236   -0.6759 C   0  0  0  0  0  0  0  0  0  0  0  0
    1.1389    3.0873   -0.2861 C   0  0  0  0  0  0  0  0  0  0  0  0
   -0.9689    0.0473    0.2948 C   0  0  0  0  0  0  0  0  0  0  0  0
    3.1401   -2.8058   -0.4546 C   0  0  0  0  0  0  0  0  0  0  0  0
   -1.4417    0.5742   -0.9073 C   0  0  0  0  0  0  0  0  0  0  0  0
   -1.7997   -0.7514    1.0806 C   0  0  0  0  0  0  0  0  0  0  0  0
   -2.7451    0.3026   -1.3231 C   0  0  0  0  0  0  0  0  0  0  0  0
   -3.1031   -1.0231    0.6647 C   0  0  0  0  0  0  0  0  0  0  0  0
   -3.5757   -0.4961   -0.5374 C   0  0  0  0  0  0  0  0  0  0  0  0
    1.1295    0.5009   -1.3309 H   0  0  0  0  0  0  0  0  0  0  0  0
    2.9424    2.0933   -0.8902 H   0  0  0  0  0  0  0  0  0  0  0  0
    2.6266    2.0448    0.8441 H   0  0  0  0  0  0  0  0  0  0  0  0
    3.3995   -0.1777   -0.5160 H   0  0  0  0  0  0  0  0  0  0  0  0
    1.9366   -1.6129   -1.7552 H   0  0  0  0  0  0  0  0  0  0  0  0
    1.1566   -2.0696   -0.2331 H   0  0  0  0  0  0  0  0  0  0  0  0
    0.6627    3.0650   -1.2709 H   0  0  0  0  0  0  0  0  0  0  0  0
    1.6444    4.0534   -0.1846 H   0  0  0  0  0  0  0  0  0  0  0  0
    0.3616    3.0410    0.4821 H   0  0  0  0  0  0  0  0  0  0  0  0
    4.0956   -2.5359   -0.9169 H   0  0  0  0  0  0  0  0  0  0  0  0
    3.3120   -2.9759    0.6136 H   0  0  0  0  0  0  0  0  0  0  0  0
    2.8063   -3.7498   -0.8973 H   0  0  0  0  0  0  0  0  0  0  0  0
   -0.8395    1.2198   -1.5366 H   0  0  0  0  0  0  0  0  0  0  0  0
   -1.4472   -1.1749    2.0175 H   0  0  0  0  0  0  0  0  0  0  0  0
   -3.1156    0.7174   -2.2561 H   0  0  0  0  0  0  0  0  0  0  0  0
   -3.7497   -1.6458    1.2760 H   0  0  0  0  0  0  0  0  0  0  0  0
   -4.5909   -0.7068   -0.8606 H   0  0  0  0  0  0  0  0  0  0  0  0
  1  5  2  0  0  0  0
  2  3  1  0  0  0  0
  2  6  1  0  0  0  0
  2 18  1  0  0  0  0
  3  4  1  0  0  0  0
  3  5  1  0  0  0  0
  3 15  1  0  0  0  0
  4  7  1  0  0  0  0
  4 16  1  0  0  0  0
  4 17  1  0  0  0  0
  5  8  1  0  0  0  0
  6  9  1  0  0  0  0
  6 19  1  0  0  0  0
  6 20  1  0  0  0  0
  7 21  1  0  0  0  0
  7 22  1  0  0  0  0
  7 23  1  0  0  0  0
  8 10  2  0  0  0  0
  8 11  1  0  0  0  0
  9 24  1  0  0  0  0
  9 25  1  0  0  0  0
  9 26  1  0  0  0  0
 10 12  1  0  0  0  0
 10 27  1  0  0  0  0
 11 13  2  0  0  0  0
 11 28  1  0  0  0  0
 12 14  2  0  0  0  0
 12 29  1  0  0  0  0
 13 14  1  0  0  0  0
 13 30  1  0  0  0  0
 14 31  1  0  0  0  0
M  END
> <PUBCHEM_COMPOUND_CID>
20326296

> <PUBCHEM_CONFORMER_RMSD>
0.6

> <PUBCHEM_CONFORMER_DIVERSEORDER>
2
65
17
104
67
76
56
32
105
23
89
103
46
75
12
91
97
96
29
13
44
24
92
54
31
82
58
100
77
61
88
73
90
93
80
101
102
8
59
87
64
78
84
22
98
72
9
99
74
50
4
83
48
36
33
21
85
51
41
53
86
62
34
63
66
68
94
52
16
47
69
43
18
70
27
20
49
30
11
37
79
7
81
38
39
55
35
10
60
25
3
57
95
26
15
1
71
14
42
40
45
5
6
28
19

> <PUBCHEM_MMFF94_PARTIAL_CHARGES>
17
1 -0.57
10 -0.15
11 -0.15
12 -0.15
13 -0.15
14 -0.15
18 0.36
2 -0.9
27 0.15
28 0.15
29 0.15
3 0.33
30 0.15
31 0.15
5 0.42
6 0.27
8 0.09

> <PUBCHEM_EFFECTIVE_ROTOR_COUNT>
5

> <PUBCHEM_PHARMACOPHORE_FEATURES>
5
1 1 acceptor
1 2 cation
1 2 donor
1 7 hydrophobe
6 8 10 11 12 13 14 rings

> <PUBCHEM_HEAVY_ATOM_COUNT>
14

> <PUBCHEM_ATOM_DEF_STEREO_COUNT>
0

> <PUBCHEM_ATOM_UDEF_STEREO_COUNT>
1

> <PUBCHEM_BOND_DEF_STEREO_COUNT>
0

> <PUBCHEM_BOND_UDEF_STEREO_COUNT>
0

> <PUBCHEM_ISOTOPIC_ATOM_COUNT>
0

> <PUBCHEM_COMPONENT_COUNT>
1

> <PUBCHEM_CACTVS_TAUTO_COUNT>
2

> <PUBCHEM_CONFORMER_ID>
0136279800000002

> <PUBCHEM_MMFF94_ENERGY>
23.198

> <PUBCHEM_FEATURE_SELFOVERLAP>
25.371

> <PUBCHEM_SHAPE_FINGERPRINT>
1 1 18195530522155514492
107287 299 18118409668086078477
11578080 2 17559658561015052824
12524768 44 18114738364801940853
12932764 1 17241033414405390499
14252887 29 17752503207075640363
14648413 74 18335134319301307261
15219456 202 18261110841427623069
16945 1 18340215196792511776
17834072 14 18263917740469565090
19786989 88 18193278722025246537
20201158 50 18408042918074770986
20361792 2 18200599077317209134
20645477 70 18337382829523523767
20671657 53 18340213972990830054
20711985 344 17833545691906935018
21524375 3 17467629733954249536
22713019 5 17758950433469359380
22802520 49 18260548913781932821
23114952 82 18186526522392933580
23211744 41 17607522732759348304
232386 152 16415759730018156766
23526113 38 18260823769950289610
23557571 272 17459758210246802827
23598291 2 17843435961996865584
23728640 28 16678662534108274338
3060560 45 18195249038620609052
6049 1 17968105239306010025
7364860 26 18338234972172094364
81228 2 17834396718381343816

> <PUBCHEM_SHAPE_MULTIPOLES>
277.26
5.35
2.62
1.25
2.11
0.59
-0.29
-2.76
1.15
-3.48
0.5
0.48
-0.03
0.74

> <PUBCHEM_SHAPE_SELFOVERLAP>
556.883

> <PUBCHEM_SHAPE_VOLUME>
163.3

> <PUBCHEM_COORDINATE_TYPE>
2
5
10

$$$$
