6405
  -OEChem-12311613153D

 18 17  0     0  0  0  0  0  0999 V2000
   -0.4532    0.1494   -1.4220 O   0  0  0  0  0  0  0  0  0  0  0  0
   -0.4208   -0.0035   -0.0013 C   0  0  0  0  0  0  0  0  0  0  0  0
    0.8880   -0.7074    0.4080 C   0  0  0  0  0  0  0  0  0  0  0  0
   -0.5477    1.3918    0.6119 C   0  0  0  0  0  0  0  0  0  0  0  0
   -1.6240   -0.8590    0.4079 C   0  0  0  0  0  0  0  0  0  0  0  0
    2.1577    0.0286   -0.0045 C   0  0  0  0  0  0  0  0  0  0  0  0
    0.9059   -0.8660    1.4931 H   0  0  0  0  0  0  0  0  0  0  0  0
    0.9200   -1.6985   -0.0628 H   0  0  0  0  0  0  0  0  0  0  0  0
   -0.4636    1.3606    1.7030 H   0  0  0  0  0  0  0  0  0  0  0  0
    0.2147    2.0731    0.2193 H   0  0  0  0  0  0  0  0  0  0  0  0
   -1.5130    1.8448    0.3562 H   0  0  0  0  0  0  0  0  0  0  0  0
   -1.6624   -1.0081    1.4920 H   0  0  0  0  0  0  0  0  0  0  0  0
   -2.5645   -0.3954    0.0886 H   0  0  0  0  0  0  0  0  0  0  0  0
   -1.5850   -1.8411   -0.0773 H   0  0  0  0  0  0  0  0  0  0  0  0
    3.0364   -0.5727    0.2512 H   0  0  0  0  0  0  0  0  0  0  0  0
    2.2525    0.9863    0.5154 H   0  0  0  0  0  0  0  0  0  0  0  0
    2.1809    0.2135   -1.0827 H   0  0  0  0  0  0  0  0  0  0  0  0
   -1.2923    0.5789   -1.6614 H   0  0  0  0  0  0  0  0  0  0  0  0
  1  2  1  0  0  0  0
  1 18  1  0  0  0  0
  2  3  1  0  0  0  0
  2  4  1  0  0  0  0
  2  5  1  0  0  0  0
  3  6  1  0  0  0  0
  3  7  1  0  0  0  0
  3  8  1  0  0  0  0
  4  9  1  0  0  0  0
  4 10  1  0  0  0  0
  4 11  1  0  0  0  0
  5 12  1  0  0  0  0
  5 13  1  0  0  0  0
  5 14  1  0  0  0  0
  6 15  1  0  0  0  0
  6 16  1  0  0  0  0
  6 17  1  0  0  0  0
M  END
> <PUBCHEM_COMPOUND_CID>
6405

> <PUBCHEM_CONFORMER_RMSD>
0.4

> <PUBCHEM_CONFORMER_DIVERSEORDER>
1
2
3

> <PUBCHEM_MMFF94_PARTIAL_CHARGES>
3
1 -0.68
18 0.4
2 0.28

> <PUBCHEM_EFFECTIVE_ROTOR_COUNT>
1

> <PUBCHEM_PHARMACOPHORE_FEATURES>
4
1 1 acceptor
1 1 donor
1 6 hydrophobe
3 2 4 5 hydrophobe

> <PUBCHEM_HEAVY_ATOM_COUNT>
6

> <PUBCHEM_ATOM_DEF_STEREO_COUNT>
0

> <PUBCHEM_ATOM_UDEF_STEREO_COUNT>
0

> <PUBCHEM_BOND_DEF_STEREO_COUNT>
0

> <PUBCHEM_BOND_UDEF_STEREO_COUNT>
0

> <PUBCHEM_ISOTOPIC_ATOM_COUNT>
0

> <PUBCHEM_COMPONENT_COUNT>
1

> <PUBCHEM_CACTVS_TAUTO_COUNT>
1

> <PUBCHEM_CONFORMER_ID>
0000190500000001

> <PUBCHEM_MMFF94_ENERGY>
9.026

> <PUBCHEM_FEATURE_SELFOVERLAP>
20.298

> <PUBCHEM_SHAPE_FINGERPRINT>
139733 1 10303827470338089563
16714656 1 17346322613141699676
20096714 4 17982172210488107576
21040471 1 17908990902534082104
24536 1 18266444422178914258
29004967 10 18270400610738643834
5943 1 12360987466608676549

> <PUBCHEM_SHAPE_MULTIPOLES>
117.61
2.12
1.16
0.97
0.98
0.35
-0.33
-0.38
0.21
-0.33
0.25
-0.15
0.03
-0.02

> <PUBCHEM_SHAPE_SELFOVERLAP>
206.474

> <PUBCHEM_SHAPE_VOLUME>
79.3

> <PUBCHEM_COORDINATE_TYPE>
2
5
10

$$$$

11543
  -OEChem-12311613153D

 21 20  0     0  0  0  0  0  0999 V2000
   -1.0421   -0.2297   -1.3962 O   0  0  0  0  0  0  0  0  0  0  0  0
   -0.9195    0.0209    0.0056 C   0  0  0  0  0  0  0  0  0  0  0  0
    0.4996    0.5581    0.2806 C   0  0  0  0  0  0  0  0  0  0  0  0
    1.6299   -0.3935   -0.1302 C   0  0  0  0  0  0  0  0  0  0  0  0
   -1.9546    1.0851    0.3853 C   0  0  0  0  0  0  0  0  0  0  0  0
   -1.2083   -1.2800    0.7578 C   0  0  0  0  0  0  0  0  0  0  0  0
    2.9951    0.2392    0.0971 C   0  0  0  0  0  0  0  0  0  0  0  0
    0.6021    0.8016    1.3458 H   0  0  0  0  0  0  0  0  0  0  0  0
    0.6340    1.4954   -0.2761 H   0  0  0  0  0  0  0  0  0  0  0  0
    1.5350   -0.6627   -1.1879 H   0  0  0  0  0  0  0  0  0  0  0  0
    1.5761   -1.3204    0.4505 H   0  0  0  0  0  0  0  0  0  0  0  0
   -2.9704    0.7452    0.1528 H   0  0  0  0  0  0  0  0  0  0  0  0
   -1.7986    2.0040   -0.1912 H   0  0  0  0  0  0  0  0  0  0  0  0
   -1.9076    1.3306    1.4513 H   0  0  0  0  0  0  0  0  0  0  0  0
   -0.5821   -2.1011    0.3934 H   0  0  0  0  0  0  0  0  0  0  0  0
   -2.2441   -1.6006    0.5955 H   0  0  0  0  0  0  0  0  0  0  0  0
   -1.0502   -1.1656    1.8349 H   0  0  0  0  0  0  0  0  0  0  0  0
    3.1387    0.4939    1.1521 H   0  0  0  0  0  0  0  0  0  0  0  0
    3.1084    1.1522   -0.4960 H   0  0  0  0  0  0  0  0  0  0  0  0
    3.7882   -0.4560   -0.1956 H   0  0  0  0  0  0  0  0  0  0  0  0
   -1.9406   -0.5613   -1.5651 H   0  0  0  0  0  0  0  0  0  0  0  0
  1  2  1  0  0  0  0
  1 21  1  0  0  0  0
  2  3  1  0  0  0  0
  2  5  1  0  0  0  0
  2  6  1  0  0  0  0
  3  4  1  0  0  0  0
  3  8  1  0  0  0  0
  3  9  1  0  0  0  0
  4  7  1  0  0  0  0
  4 10  1  0  0  0  0
  4 11  1  0  0  0  0
  5 12  1  0  0  0  0
  5 13  1  0  0  0  0
  5 14  1  0  0  0  0
  6 15  1  0  0  0  0
  6 16  1  0  0  0  0
  6 17  1  0  0  0  0
  7 18  1  0  0  0  0
  7 19  1  0  0  0  0
  7 20  1  0  0  0  0
M  END
> <PUBCHEM_COMPOUND_CID>
11543

> <PUBCHEM_CONFORMER_RMSD>
0.4

> <PUBCHEM_CONFORMER_DIVERSEORDER>
1
4
2
5
3

> <PUBCHEM_MMFF94_PARTIAL_CHARGES>
3
1 -0.68
2 0.28
21 0.4

> <PUBCHEM_EFFECTIVE_ROTOR_COUNT>
2

> <PUBCHEM_PHARMACOPHORE_FEATURES>
4
1 1 acceptor
1 1 donor
1 7 hydrophobe
3 2 5 6 hydrophobe

> <PUBCHEM_HEAVY_ATOM_COUNT>
7

> <PUBCHEM_ATOM_DEF_STEREO_COUNT>
0

> <PUBCHEM_ATOM_UDEF_STEREO_COUNT>
0

> <PUBCHEM_BOND_DEF_STEREO_COUNT>
0

> <PUBCHEM_BOND_UDEF_STEREO_COUNT>
0

> <PUBCHEM_ISOTOPIC_ATOM_COUNT>
0

> <PUBCHEM_COMPONENT_COUNT>
1

> <PUBCHEM_CACTVS_TAUTO_COUNT>
1

> <PUBCHEM_CONFORMER_ID>
00002D1700000001

> <PUBCHEM_MMFF94_ENERGY>
8.8284

> <PUBCHEM_FEATURE_SELFOVERLAP>
20.297

> <PUBCHEM_SHAPE_FINGERPRINT>
14390081 3 18131347510136653568
16714656 1 17095525088766740811
21040471 1 18262807245955915249
23235687 12 17531254980186951870
24536 1 18336537317639280256
29004967 10 18272378593845023106
369184 2 16805316717166956432
5460574 1 7997967972918935040
5943 1 16809019945528320847

> <PUBCHEM_SHAPE_MULTIPOLES>
138.19
3.4
1.11
0.93
2.7
0.17
0.26
-0.47
-0.3
-0.58
-0.23
-0.31
0.07
0.05

> <PUBCHEM_SHAPE_SELFOVERLAP>
244.231

> <PUBCHEM_SHAPE_VOLUME>
92.3

> <PUBCHEM_COORDINATE_TYPE>
2
5
10

$$$$

48575
  -OEChem-12311613163D

 38 39  0     0  0  0  0  0  0999 V2000
    2.3935   -0.2381   -2.0524 O   0  0  0  0  0  0  0  0  0  0  0  0
   -0.2556    0.0666    1.8128 O   0  0  0  0  0  0  0  0  0  0  0  0
    2.6903    3.4095    0.7160 O   0  0  0  0  0  0  0  0  0  0  0  0
    2.4682    1.6285   -0.7208 N   0  0  0  0  0  0  0  0  0  0  0  0
    1.1454    1.7803    1.2104 N   0  0  0  0  0  0  0  0  0  0  0  0
    0.5914    0.0701   -0.4594 C   0  0  0  0  0  0  0  0  0  0  0  0
    0.4207   -1.4560   -0.4561 C   0  0  0  0  0  0  0  0  0  0  0  0
   -0.5407    0.7067   -1.2852 C   0  0  0  0  0  0  0  0  0  0  0  0
    1.5441   -2.1282    0.3219 C   0  0  0  0  0  0  0  0  0  0  0  0
    1.9042    0.4347   -1.1454 C   0  0  0  0  0  0  0  0  0  0  0  0
    0.4584    0.6009    0.9645 C   0  0  0  0  0  0  0  0  0  0  0  0
   -1.8829    0.4043   -0.6887 C   0  0  0  0  0  0  0  0  0  0  0  0
    1.3541   -3.6446    0.3482 C   0  0  0  0  0  0  0  0  0  0  0  0
    2.1283    2.3554    0.4138 C   0  0  0  0  0  0  0  0  0  0  0  0
    2.4492   -4.3295    1.1501 C   0  0  0  0  0  0  0  0  0  0  0  0
   -2.5726   -0.7364   -1.0861 C   0  0  0  0  0  0  0  0  0  0  0  0
   -2.4271    1.2665    0.2573 C   0  0  0  0  0  0  0  0  0  0  0  0
   -3.8210   -1.0179   -0.5312 C   0  0  0  0  0  0  0  0  0  0  0  0
   -3.6755    0.9848    0.8122 C   0  0  0  0  0  0  0  0  0  0  0  0
   -4.3724   -0.1575    0.4179 C   0  0  0  0  0  0  0  0  0  0  0  0
    0.4022   -1.8487   -1.4811 H   0  0  0  0  0  0  0  0  0  0  0  0
   -0.5123   -1.7652    0.0255 H   0  0  0  0  0  0  0  0  0  0  0  0
   -0.5083    0.3546   -2.3258 H   0  0  0  0  0  0  0  0  0  0  0  0
   -0.4134    1.7963   -1.3541 H   0  0  0  0  0  0  0  0  0  0  0  0
    2.5214   -1.9105   -0.1219 H   0  0  0  0  0  0  0  0  0  0  0  0
    1.5788   -1.7639    1.3548 H   0  0  0  0  0  0  0  0  0  0  0  0
    1.3569   -4.0386   -0.6748 H   0  0  0  0  0  0  0  0  0  0  0  0
    0.3817   -3.8929    0.7896 H   0  0  0  0  0  0  0  0  0  0  0  0
    3.2665    1.9672   -1.2505 H   0  0  0  0  0  0  0  0  0  0  0  0
    0.9681    2.2312    2.1036 H   0  0  0  0  0  0  0  0  0  0  0  0
    2.4510   -3.9828    2.1884 H   0  0  0  0  0  0  0  0  0  0  0  0
    3.4352   -4.1292    0.7188 H   0  0  0  0  0  0  0  0  0  0  0  0
    2.2943   -5.4131    1.1544 H   0  0  0  0  0  0  0  0  0  0  0  0
   -2.1635   -1.4092   -1.8347 H   0  0  0  0  0  0  0  0  0  0  0  0
   -1.9055    2.1691    0.5636 H   0  0  0  0  0  0  0  0  0  0  0  0
   -4.3651   -1.9054   -0.8406 H   0  0  0  0  0  0  0  0  0  0  0  0
   -4.1067    1.6567    1.5486 H   0  0  0  0  0  0  0  0  0  0  0  0
   -5.3450   -0.3760    0.8489 H   0  0  0  0  0  0  0  0  0  0  0  0
  1 10  2  0  0  0  0
  2 11  2  0  0  0  0
  3 14  2  0  0  0  0
  4 10  1  0  0  0  0
  4 14  1  0  0  0  0
  4 29  1  0  0  0  0
  5 11  1  0  0  0  0
  5 14  1  0  0  0  0
  5 30  1  0  0  0  0
  6  7  1  0  0  0  0
  6  8  1  0  0  0  0
  6 10  1  0  0  0  0
  6 11  1  0  0  0  0
  7  9  1  0  0  0  0
  7 21  1  0  0  0  0
  7 22  1  0  0  0  0
  8 12  1  0  0  0  0
  8 23  1  0  0  0  0
  8 24  1  0  0  0  0
  9 13  1  0  0  0  0
  9 25  1  0  0  0  0
  9 26  1  0  0  0  0
 12 16  2  0  0  0  0
 12 17  1  0  0  0  0
 13 15  1  0  0  0  0
 13 27  1  0  0  0  0
 13 28  1  0  0  0  0
 15 31  1  0  0  0  0
 15 32  1  0  0  0  0
 15 33  1  0  0  0  0
 16 18  1  0  0  0  0
 16 34  1  0  0  0  0
 17 19  2  0  0  0  0
 17 35  1  0  0  0  0
 18 20  2  0  0  0  0
 18 36  1  0  0  0  0
 19 20  1  0  0  0  0
 19 37  1  0  0  0  0
 20 38  1  0  0  0  0
M  END
> <PUBCHEM_COMPOUND_CID>
48575

> <PUBCHEM_CONFORMER_RMSD>
0.8

> <PUBCHEM_CONFORMER_DIVERSEORDER>
1
10
9
6
12
11
8
7
2
3
4
5

> <PUBCHEM_MMFF94_PARTIAL_CHARGES>
23
1 -0.57
10 0.57
11 0.57
12 -0.14
14 0.69
16 -0.15
17 -0.15
18 -0.15
19 -0.15
2 -0.57
20 -0.15
29 0.37
3 -0.57
30 0.37
34 0.15
35 0.15
36 0.15
37 0.15
38 0.15
4 -0.49
5 -0.49
6 0.12
8 0.14

> <PUBCHEM_EFFECTIVE_ROTOR_COUNT>
5.6

> <PUBCHEM_PHARMACOPHORE_FEATURES>
8
1 1 acceptor
1 15 hydrophobe
1 2 acceptor
1 3 acceptor
1 4 donor
1 5 donor
6 12 16 17 18 19 20 rings
6 4 5 6 10 11 14 rings

> <PUBCHEM_HEAVY_ATOM_COUNT>
20

> <PUBCHEM_ATOM_DEF_STEREO_COUNT>
0

> <PUBCHEM_ATOM_UDEF_STEREO_COUNT>
0

> <PUBCHEM_BOND_DEF_STEREO_COUNT>
0

> <PUBCHEM_BOND_UDEF_STEREO_COUNT>
0

> <PUBCHEM_ISOTOPIC_ATOM_COUNT>
0

> <PUBCHEM_COMPONENT_COUNT>
1

> <PUBCHEM_CACTVS_TAUTO_COUNT>
5

> <PUBCHEM_CONFORMER_ID>
0000BDBF00000001

> <PUBCHEM_MMFF94_ENERGY>
55.0533

> <PUBCHEM_FEATURE_SELFOVERLAP>
40.636

> <PUBCHEM_SHAPE_FINGERPRINT>
11578080 2 18047457938344352044
12532896 13 18051691337046247718
12553582 1 17980199682280773391
12788726 201 17473281876529348618
13004483 165 17471565530104028099
13132413 78 18127680539946834202
13134695 92 18122044417356818679
13140716 1 18265329680338916538
13533116 47 18335425630670952235
13583140 156 17979113485589341593
13955234 65 18409167710365244483
14178342 30 18189056559263147947
14787075 74 17480291714512686639
15230672 131 15096499287699818647
15375462 189 18267593411693030407
16945 1 18410007698103471117
1813 80 17979078180235877511
18186145 218 18342463689539752565
19078846 21 17986398784877879889
19765921 60 17986953140195709456
201361 129 18342462551584174961
20600515 1 17554883274276902553
21452121 199 18118673319017258130
21524375 3 17986099936489775668
22112679 90 17696211213488140154
2255824 54 18412547621455709982
229495 10 17393646538299461333
23419403 2 16666608815623405394
25 1 17845096353425210844
2748010 2 16258127463797280297
394222 165 18202286926254784427
458136 41 18262249905324682511
474 4 18193562387768165821
633830 44 18129384963343215741
6442390 28 18049173451197786363
7097593 13 18195810674329764043
7364860 26 18410289177312059687
81228 2 17400075773808056294

> <PUBCHEM_SHAPE_MULTIPOLES>
384.02
5.84
3.9
1.45
6.2
2.1
-0.15
1.73
0.46
-5.99
1.6
-0.42
-0.15
-0.83

> <PUBCHEM_SHAPE_SELFOVERLAP>
812.412

> <PUBCHEM_SHAPE_VOLUME>
211.4

> <PUBCHEM_COORDINATE_TYPE>
2
5
10

$$$$
131664
  -OEChem-12311613173D

 51 54  0     1  0  0  0  0  0999 V2000
   -5.8515   -0.0829    2.1483 Cl  0  0  0  0  0  0  0  0  0  0  0  0
    0.9712   -1.1897    2.2325 O   0  0  0  0  0  0  0  0  0  0  0  0
    2.6649    1.9085   -0.3755 O   0  0  0  0  0  0  0  0  0  0  0  0
    0.9536   -1.1193   -0.1395 N   0  0  0  0  0  0  0  0  0  0  0  0
   -1.3062   -0.8351    0.5003 N   0  0  0  0  0  0  0  0  0  0  0  0
   -3.4998   -0.5401    1.1597 N   0  0  0  0  0  0  0  0  0  0  0  0
    1.9794   -0.9495   -1.1855 C   0  0  1  0  0  0  0  0  0  0  0  0
    1.7929    0.3315   -1.9782 C   0  0  0  0  0  0  0  0  0  0  0  0
    3.2511   -0.9467   -0.3877 C   0  0  0  0  0  0  0  0  0  0  0  0
    2.9709   -1.0111    0.9724 C   0  0  0  0  0  0  0  0  0  0  0  0
    1.5198   -1.1089    1.1476 C   0  0  0  0  0  0  0  0  0  0  0  0
    1.7271    1.5658   -1.0936 C   0  0  0  0  0  0  0  0  0  0  0  0
    0.4277    2.3545   -1.1660 C   0  0  0  0  0  0  0  0  0  0  0  0
    0.4171    3.5552   -0.2194 C   0  0  0  0  0  0  0  0  0  0  0  0
   -0.9168    4.3239   -0.2200 C   0  0  0  0  0  0  0  0  0  0  0  0
   -0.4017   -1.2781   -0.4108 C   0  0  0  0  0  0  0  0  0  0  0  0
    4.5634   -0.8833   -0.8253 C   0  0  0  0  0  0  0  0  0  0  0  0
    3.9595   -1.0087    1.9393 C   0  0  0  0  0  0  0  0  0  0  0  0
    5.5833   -0.8784    0.1315 C   0  0  0  0  0  0  0  0  0  0  0  0
    5.2831   -0.9386    1.5033 C   0  0  0  0  0  0  0  0  0  0  0  0
   -2.0622    3.3765    0.1452 C   0  0  0  0  0  0  0  0  0  0  0  0
   -0.9051    5.5141    0.7402 C   0  0  0  0  0  0  0  0  0  0  0  0
   -0.7547   -1.8825   -1.6019 C   0  0  0  0  0  0  0  0  0  0  0  0
   -2.1054   -2.0356   -1.8635 C   0  0  0  0  0  0  0  0  0  0  0  0
   -2.6152   -0.9796    0.2551 C   0  0  0  0  0  0  0  0  0  0  0  0
   -3.0545   -1.5848   -0.9351 C   0  0  0  0  0  0  0  0  0  0  0  0
   -4.4308   -1.7238   -1.1641 C   0  0  0  0  0  0  0  0  0  0  0  0
   -5.3382   -1.2672   -0.2236 C   0  0  0  0  0  0  0  0  0  0  0  0
   -4.8232   -0.6862    0.9144 C   0  0  0  0  0  0  0  0  0  0  0  0
    1.9930   -1.8318   -1.8348 H   0  0  0  0  0  0  0  0  0  0  0  0
    2.6146    0.4851   -2.6882 H   0  0  0  0  0  0  0  0  0  0  0  0
    0.8782    0.2826   -2.5794 H   0  0  0  0  0  0  0  0  0  0  0  0
    0.2899    2.6928   -2.1986 H   0  0  0  0  0  0  0  0  0  0  0  0
   -0.3721    1.6545   -0.9146 H   0  0  0  0  0  0  0  0  0  0  0  0
    1.2271    4.2417   -0.4978 H   0  0  0  0  0  0  0  0  0  0  0  0
    0.6420    3.2164    0.8007 H   0  0  0  0  0  0  0  0  0  0  0  0
   -1.0992    4.7100   -1.2309 H   0  0  0  0  0  0  0  0  0  0  0  0
    4.8016   -0.8344   -1.8824 H   0  0  0  0  0  0  0  0  0  0  0  0
    3.7256   -1.0640    2.9961 H   0  0  0  0  0  0  0  0  0  0  0  0
    6.6208   -0.8266   -0.1881 H   0  0  0  0  0  0  0  0  0  0  0  0
    6.0913   -0.9345    2.2297 H   0  0  0  0  0  0  0  0  0  0  0  0
   -2.9936    3.9355    0.2901 H   0  0  0  0  0  0  0  0  0  0  0  0
   -2.2592    2.6505   -0.6494 H   0  0  0  0  0  0  0  0  0  0  0  0
   -1.8538    2.8310    1.0720 H   0  0  0  0  0  0  0  0  0  0  0  0
   -0.7526    5.1872    1.7744 H   0  0  0  0  0  0  0  0  0  0  0  0
   -0.0988    6.2087    0.4825 H   0  0  0  0  0  0  0  0  0  0  0  0
   -1.8501    6.0651    0.6928 H   0  0  0  0  0  0  0  0  0  0  0  0
   -0.0411   -2.2521   -2.3278 H   0  0  0  0  0  0  0  0  0  0  0  0
   -2.4170   -2.5104   -2.7908 H   0  0  0  0  0  0  0  0  0  0  0  0
   -4.7989   -2.1883   -2.0758 H   0  0  0  0  0  0  0  0  0  0  0  0
   -6.4047   -1.3687   -0.3891 H   0  0  0  0  0  0  0  0  0  0  0  0
  1 29  1  0  0  0  0
  2 11  2  0  0  0  0
  3 12  2  0  0  0  0
  4  7  1  0  0  0  0
  4 11  1  0  0  0  0
  4 16  1  0  0  0  0
  5 16  2  0  0  0  0
  5 25  1  0  0  0  0
  6 25  1  0  0  0  0
  6 29  2  0  0  0  0
  7  8  1  0  0  0  0
  7  9  1  0  0  0  0
  7 30  1  0  0  0  0
  8 12  1  0  0  0  0
  8 31  1  0  0  0  0
  8 32  1  0  0  0  0
  9 10  1  0  0  0  0
  9 17  2  0  0  0  0
 10 11  1  0  0  0  0
 10 18  2  0  0  0  0
 12 13  1  0  0  0  0
 13 14  1  0  0  0  0
 13 33  1  0  0  0  0
 13 34  1  0  0  0  0
 14 15  1  0  0  0  0
 14 35  1  0  0  0  0
 14 36  1  0  0  0  0
 15 21  1  0  0  0  0
 15 22  1  0  0  0  0
 15 37  1  0  0  0  0
 16 23  1  0  0  0  0
 17 19  1  0  0  0  0
 17 38  1  0  0  0  0
 18 20  1  0  0  0  0
 18 39  1  0  0  0  0
 19 20  2  0  0  0  0
 19 40  1  0  0  0  0
 20 41  1  0  0  0  0
 21 42  1  0  0  0  0
 21 43  1  0  0  0  0
 21 44  1  0  0  0  0
 22 45  1  0  0  0  0
 22 46  1  0  0  0  0
 22 47  1  0  0  0  0
 23 24  2  0  0  0  0
 23 48  1  0  0  0  0
 24 26  1  0  0  0  0
 24 49  1  0  0  0  0
 25 26  2  0  0  0  0
 26 27  1  0  0  0  0
 27 28  2  0  0  0  0
 27 50  1  0  0  0  0
 28 29  1  0  0  0  0
 28 51  1  0  0  0  0
M  END
> <PUBCHEM_COMPOUND_CID>
131664

> <PUBCHEM_CONFORMER_RMSD>
0.8

> <PUBCHEM_CONFORMER_DIVERSEORDER>
1
106
170
18
152
204
27
73
122
61
96
128
31
177
97
187
87
111
165
54
108
65
162
102
160
14
146
42
142
110
52
151
132
135
83
86
60
158
191
192
59
16
202
17
12
21
186
103
201
208
115
81
145
113
181
50
104
193
174
101
93
15
70
78
148
209
131
164
22
116
112
25
74
38
99
184
129
196
88
11
72
153
117
56
123
168
140
109
149
157
85
173
4
124
24
36
76
134
55
199
195
176
194
19
39
156
82
114
77
58
29
207
125
46
30
133
185
182
203
53
180
171
8
13
7
155
167
139
169
136
198
161
10
143
105
49
127
66
33
89
41
92
141
26
183
9
95
119
62
47
206
20
94
118
51
120
172
44
57
130
126
90
154
3
68
175
84
67
121
64
138
159
80
150
71
2
37
23
137
100
40
69
210
200
107
34
5
190
189
48
75
166
188
63
79
98
43
6
35
28
178
197
91
32
147
163
45
144
179
205

> <PUBCHEM_MMFF94_PARTIAL_CHARGES>
32
1 -0.18
10 0.09
11 0.54
12 0.45
13 0.06
16 0.43
17 -0.15
18 -0.15
19 -0.15
2 -0.57
20 -0.15
23 -0.15
24 -0.15
25 0.62
27 -0.15
28 -0.15
29 0.49
3 -0.57
38 0.15
39 0.15
4 -0.48
40 0.15
41 0.15
48 0.15
49 0.15
5 -0.62
50 0.15
51 0.15
6 -0.62
7 0.44
8 0.06
9 -0.14

> <PUBCHEM_EFFECTIVE_ROTOR_COUNT>
6.4

> <PUBCHEM_PHARMACOPHORE_FEATURES>
8
1 2 acceptor
1 3 acceptor
1 6 acceptor
3 15 21 22 hydrophobe
5 4 7 9 10 11 rings
6 5 16 23 24 25 26 rings
6 6 25 26 27 28 29 rings
6 9 10 17 18 19 20 rings

> <PUBCHEM_HEAVY_ATOM_COUNT>
29

> <PUBCHEM_ATOM_DEF_STEREO_COUNT>
0

> <PUBCHEM_ATOM_UDEF_STEREO_COUNT>
1

> <PUBCHEM_BOND_DEF_STEREO_COUNT>
0

> <PUBCHEM_BOND_UDEF_STEREO_COUNT>
0

> <PUBCHEM_ISOTOPIC_ATOM_COUNT>
0

> <PUBCHEM_COMPONENT_COUNT>
1

> <PUBCHEM_CACTVS_TAUTO_COUNT>
3

> <PUBCHEM_CONFORMER_ID>
0002025000000001

> <PUBCHEM_MMFF94_ENERGY>
84.0546

> <PUBCHEM_FEATURE_SELFOVERLAP>
40.718

> <PUBCHEM_SHAPE_FINGERPRINT>
10940486 97 17772746315243382302
11421498 54 18187641354100671306
11595378 159 18338509729899251210
11646440 116 18259987089073072146
12166972 35 18057304280067422439
12236239 1 18342455975652095934
12293681 4 18188505626122066026
12403259 118 18271820038271282979
12422481 6 18201167537861091219
12633257 1 18260274074730732659
12788726 201 18335428945757742780
13583140 156 17972886040697719799
13590594 115 18410295817347537884
13692114 37 17548407112446254877
14028597 1 17749384820047037096
14117953 113 18271815562836116045
14950920 106 17896620521355389283
14955137 171 18408889567798313134
15238133 3 18114473275041062095
15420108 30 17699281381003197452
17980427 23 17631444729993163461
1813 80 18412541024734427622
19301679 30 18263925436402632978
20600515 1 18130791204254851103
21033648 29 17703214149021885491
21041028 32 18334855017488273660
21133410 38 17122549749967552409
21344244 78 18339348781693082833
21927370 108 17823123563722929536
23845131 108 17547283411373185692
3052486 1 18263932042415021476
345986 75 18115008745772501306
469060 322 18339095795603718521
474 4 17762898066934250461
508180 173 17902749143080629485
513202 73 18194685861055487302
5895379 119 17774461441507528785
6086070 43 18263063549073693159
6438718 38 18193277399433678312
653340 110 18126571115461361713
7471813 234 18335693974935334124
7495541 125 16587742066318205998
9777508 108 17981604866831037308

> <PUBCHEM_SHAPE_MULTIPOLES>
571.99
10.7
4.63
1.93
2.54
11.06
-0.42
-7.33
-4.7
2.68
0.36
0.08
-0.81
-1.55

> <PUBCHEM_SHAPE_SELFOVERLAP>
1241.4

> <PUBCHEM_SHAPE_VOLUME>
314.6

> <PUBCHEM_COORDINATE_TYPE>
2
5
10

$$$$
49344
  -OEChem-12311613173D

 29 29  0     1  0  0  0  0  0999 V2000
    2.2014    2.0028   -1.0971 O   0  0  0  0  0  0  0  0  0  0  0  0
    1.4019    2.6057    0.9390 O   0  0  0  0  0  0  0  0  0  0  0  0
    3.0336   -2.5250   -0.0161 N   0  0  0  0  0  0  0  0  0  0  0  0
    1.3181   -0.7171   -0.3024 C   0  0  1  0  0  0  0  0  0  0  0  0
   -0.1821   -0.4664   -0.1849 C   0  0  0  0  0  0  0  0  0  0  0  0
    2.1005    0.3000    0.5595 C   0  0  0  0  0  0  0  0  0  0  0  0
    1.6161   -2.1906    0.0610 C   0  0  0  0  0  0  0  0  0  0  0  0
   -0.8893   -0.1273   -1.3182 C   0  0  0  0  0  0  0  0  0  0  0  0
   -0.7798   -0.5878    1.0510 C   0  0  0  0  0  0  0  0  0  0  0  0
   -2.8920   -0.0139    0.0281 C   0  0  0  0  0  0  0  0  0  0  0  0
   -2.2609    0.1019   -1.2104 C   0  0  0  0  0  0  0  0  0  0  0  0
   -2.1516   -0.3588    1.1588 C   0  0  0  0  0  0  0  0  0  0  0  0
    1.8428    1.7464    0.1885 C   0  0  0  0  0  0  0  0  0  0  0  0
   -4.3587    0.2302    0.1431 C   0  0  0  0  0  0  0  0  0  0  0  0
    1.6198   -0.5697   -1.3490 H   0  0  0  0  0  0  0  0  0  0  0  0
    1.8701    0.1813    1.6249 H   0  0  0  0  0  0  0  0  0  0  0  0
    3.1817    0.1463    0.4631 H   0  0  0  0  0  0  0  0  0  0  0  0
    1.0665   -2.8547   -0.6171 H   0  0  0  0  0  0  0  0  0  0  0  0
    1.2749   -2.4305    1.0741 H   0  0  0  0  0  0  0  0  0  0  0  0
   -0.4080   -0.0346   -2.2869 H   0  0  0  0  0  0  0  0  0  0  0  0
   -0.2223   -0.8536    1.9433 H   0  0  0  0  0  0  0  0  0  0  0  0
   -2.8273    0.3682   -2.0988 H   0  0  0  0  0  0  0  0  0  0  0  0
   -2.6323   -0.4535    2.1289 H   0  0  0  0  0  0  0  0  0  0  0  0
    3.5525   -2.0121    0.6946 H   0  0  0  0  0  0  0  0  0  0  0  0
    3.4085   -2.2248   -0.9150 H   0  0  0  0  0  0  0  0  0  0  0  0
   -4.6959    0.9659   -0.5951 H   0  0  0  0  0  0  0  0  0  0  0  0
   -4.9084   -0.7029   -0.0153 H   0  0  0  0  0  0  0  0  0  0  0  0
   -4.6172    0.6265    1.1309 H   0  0  0  0  0  0  0  0  0  0  0  0
    2.0505    2.9417   -1.3380 H   0  0  0  0  0  0  0  0  0  0  0  0
  1 13  1  0  0  0  0
  1 29  1  0  0  0  0
  2 13  2  0  0  0  0
  3  7  1  0  0  0  0
  3 24  1  0  0  0  0
  3 25  1  0  0  0  0
  4  5  1  0  0  0  0
  4  6  1  0  0  0  0
  4  7  1  0  0  0  0
  4 15  1  0  0  0  0
  5  8  2  0  0  0  0
  5  9  1  0  0  0  0
  6 13  1  0  0  0  0
  6 16  1  0  0  0  0
  6 17  1  0  0  0  0
  7 18  1  0  0  0  0
  7 19  1  0  0  0  0
  8 11  1  0  0  0  0
  8 20  1  0  0  0  0
  9 12  2  0  0  0  0
  9 21  1  0  0  0  0
 10 11  2  0  0  0  0
 10 12  1  0  0  0  0
 10 14  1  0  0  0  0
 11 22  1  0  0  0  0
 12 23  1  0  0  0  0
 14 26  1  0  0  0  0
 14 27  1  0  0  0  0
 14 28  1  0  0  0  0
M  END
> <PUBCHEM_COMPOUND_CID>
49344

> <PUBCHEM_CONFORMER_RMSD>
0.6

> <PUBCHEM_CONFORMER_DIVERSEORDER>
2
14
27
26
24
15
18
10
13
25
11
19
22
23
20
8
16
3
17
7
1
21
12
6
4
9
5

> <PUBCHEM_MMFF94_PARTIAL_CHARGES>
21
1 -0.65
10 -0.14
11 -0.15
12 -0.15
13 0.66
14 0.14
2 -0.57
20 0.15
21 0.15
22 0.15
23 0.15
24 0.36
25 0.36
29 0.5
3 -0.99
4 0.14
5 -0.14
6 0.06
7 0.27
8 -0.15
9 -0.15

> <PUBCHEM_EFFECTIVE_ROTOR_COUNT>
4

> <PUBCHEM_PHARMACOPHORE_FEATURES>
6
1 1 acceptor
1 2 acceptor
1 3 cation
1 3 donor
3 1 2 13 anion
6 5 8 9 10 11 12 rings

> <PUBCHEM_HEAVY_ATOM_COUNT>
14

> <PUBCHEM_ATOM_DEF_STEREO_COUNT>
0

> <PUBCHEM_ATOM_UDEF_STEREO_COUNT>
1

> <PUBCHEM_BOND_DEF_STEREO_COUNT>
0

> <PUBCHEM_BOND_UDEF_STEREO_COUNT>
0

> <PUBCHEM_ISOTOPIC_ATOM_COUNT>
0

> <PUBCHEM_COMPONENT_COUNT>
1

> <PUBCHEM_CACTVS_TAUTO_COUNT>
1

> <PUBCHEM_CONFORMER_ID>
0000C0C000000002

> <PUBCHEM_MMFF94_ENERGY>
29.3544

> <PUBCHEM_FEATURE_SELFOVERLAP>
30.504

> <PUBCHEM_SHAPE_FINGERPRINT>
1 1 18339075016462158460
10465860 250 17751628867587690666
10857977 72 16660361506797722727
11031198 65 18338240465261147261
12326174 3 18271537437364060470
13538477 17 17274811480831017127
14115302 16 17346304982633623063
14289901 80 18341334491730827963
14817 1 16970563689900290668
15219456 202 18114186358087644523
15775835 57 18058167404604769565
16945 1 18340476833251855255
17357990 137 17346054302202841265
17841504 4 18337955584475539123
1813 80 17772202916271229470
18186145 218 17968088678196946893
19765921 60 17486200412063417041
19786989 88 18188765171016472125
20339313 130 18271808952158747526
20559304 39 18130787841179309865
20645464 45 17676198104718505763
20645476 183 17703787072094771599
20671657 1 18342739649735769534
20708731 107 18408608054303540310
21041028 32 18197496229644208952
21296965 67 18194398879708708786
21501502 16 18263920106511261467
21524375 3 18046899665562303928
21639500 275 18340474664525589901
21947302 44 18333449858839279313
22096605 113 18341045337093934009
23175994 123 18118129073894363014
23419403 2 17411578486722201984
23526113 38 17750526078451501002
23598291 2 18060409192976042087
25 1 18338800125454339992
2748010 2 17458063772591895455
305870 269 18270389633102948056
3286 77 18334576794155279391
6049 1 17968370152894141581
7364860 26 18412262835233462530
77492 1 17489301984210283351
81228 2 17545602249825466058

> <PUBCHEM_SHAPE_MULTIPOLES>
271.39
5.32
2.25
1.18
4.06
0.37
0.11
-0.23
-0.15
-3.28
-0.17
0.36
0.18
0.13

> <PUBCHEM_SHAPE_SELFOVERLAP>
554.098

> <PUBCHEM_SHAPE_VOLUME>
156.7

> <PUBCHEM_COORDINATE_TYPE>
2
5
10

$$$$
